<?xml version="1.0" encoding="UTF-8"?>

<!-- generated on 6/25/2018 12:03:49 PM by Netedit Version 0.32.0
<?xml version="1.0" encoding="UTF-8"?>

<configuration xmlns:xsi="http://www.w3.org/2001/XMLSchema-instance" xsi:noNamespaceSchemaLocation="http://sumo.dlr.de/xsd/netconvertConfiguration.xsd">

    <input>
        <sumo-net-file value="C:\Users\abeld\Downloads\Intersection\ContinuousFlow\continuousflow.net.xml"/>
    </input>

    <output>
        <output-file value="C:\Users\abeld\Downloads\Intersection\ContinuousFlow\continuousflow.net.xml"/>
    </output>

    <processing>
        <no-turnarounds value="true"/>
        <offset.disable-normalization value="true"/>
        <lefthand value="false"/>
        <junctions.corner-detail value="0"/>
        <rectangular-lane-cut value="false"/>
        <walkingareas value="false"/>
    </processing>

</configuration>
-->

<net version="0.27" xmlns:xsi="http://www.w3.org/2001/XMLSchema-instance" xsi:noNamespaceSchemaLocation="http://sumo.dlr.de/xsd/net_file.xsd">

    <location netOffset="0.00,0.00" convBoundary="-620.00,-570.00,800.00,780.00" origBoundary="-10000000000.00,-10000000000.00,10000000000.00,10000000000.00" projParameter="!"/>

    <edge id=":gneJ10_0" function="internal">
        <lane id=":gneJ10_0_0" index="0" speed="13.89" length="0.10" shape="38.35,250.00 38.35,250.00"/>
    </edge>
    <edge id=":gneJ102_0" function="internal">
        <lane id=":gneJ102_0_0" index="0" speed="13.89" length="15.10" shape="290.46,88.95 287.38,86.64 284.30,84.26 281.06,82.40 277.52,81.65"/>
    </edge>
    <edge id=":gneJ102_1" function="internal">
        <lane id=":gneJ102_1_0" index="0" speed="13.89" length="15.15" shape="292.03,85.75 288.46,84.44 284.87,83.11 281.23,82.07 277.52,81.65"/>
    </edge>
    <edge id=":gneJ102_2" function="internal">
        <lane id=":gneJ102_2_0" index="0" speed="13.89" length="13.58" shape="291.09,81.65 277.52,81.65"/>
    </edge>
    <edge id=":gneJ103_0" function="internal">
        <lane id=":gneJ103_0_0" index="0" speed="13.89" length="13.12" shape="290.51,95.24 287.25,94.01 284.34,92.85 281.37,91.99 277.97,91.65"/>
    </edge>
    <edge id=":gneJ103_1" function="internal">
        <lane id=":gneJ103_1_0" index="0" speed="13.89" length="13.65" shape="291.63,91.65 277.97,91.65"/>
    </edge>
    <edge id=":gneJ103_2" function="internal">
        <lane id=":gneJ103_2_0" index="0" speed="13.89" length="13.63" shape="291.04,88.06 287.70,89.29 284.60,90.45 281.46,91.31 277.97,91.65"/>
    </edge>
    <edge id=":gneJ104_0" function="internal">
        <lane id=":gneJ104_0_0" index="0" speed="13.89" length="13.11" shape="291.63,101.65 278.52,101.65"/>
    </edge>
    <edge id=":gneJ104_1" function="internal">
        <lane id=":gneJ104_1_0" index="0" speed="13.89" length="15.68" shape="293.49,97.24 289.85,98.60 286.10,100.04 282.30,101.18 278.52,101.65"/>
    </edge>
    <edge id=":gneJ104_2" function="internal">
        <lane id=":gneJ104_2_0" index="0" speed="13.89" length="15.65" shape="291.92,94.04 288.77,96.40 285.53,98.88 282.13,100.85 278.52,101.65"/>
    </edge>
    <edge id=":gneJ11_0" function="internal">
        <lane id=":gneJ11_0_0" index="0" speed="13.89" length="0.23" shape="38.37,-99.77 38.36,-99.84 38.35,-99.88 38.35,-99.93 38.35,-100.00"/>
    </edge>
    <edge id=":gneJ12_0" function="internal">
        <lane id=":gneJ12_0_0" index="0" speed="13.89" length="0.10" shape="28.35,250.00 28.35,250.00"/>
    </edge>
    <edge id=":gneJ134_0" function="internal">
        <lane id=":gneJ134_0_0" index="0" speed="13.89" length="13.11" shape="-181.63,48.35 -168.52,48.35"/>
    </edge>
    <edge id=":gneJ134_1" function="internal">
        <lane id=":gneJ134_1_0" index="0" speed="13.89" length="15.68" shape="-183.49,52.76 -179.85,51.40 -176.10,49.96 -172.30,48.82 -168.52,48.35"/>
    </edge>
    <edge id=":gneJ134_2" function="internal">
        <lane id=":gneJ134_2_0" index="0" speed="13.89" length="15.65" shape="-181.92,55.96 -178.77,53.60 -175.53,51.12 -172.13,49.15 -168.52,48.35"/>
    </edge>
    <edge id=":gneJ135_0" function="internal">
        <lane id=":gneJ135_0_0" index="0" speed="13.89" length="13.12" shape="-180.51,54.76 -177.25,55.99 -174.34,57.15 -171.37,58.01 -167.97,58.35"/>
    </edge>
    <edge id=":gneJ135_1" function="internal">
        <lane id=":gneJ135_1_0" index="0" speed="13.89" length="13.65" shape="-181.63,58.35 -167.97,58.35"/>
    </edge>
    <edge id=":gneJ135_2" function="internal">
        <lane id=":gneJ135_2_0" index="0" speed="13.89" length="13.63" shape="-181.04,61.94 -177.70,60.71 -174.60,59.55 -171.46,58.69 -167.97,58.35"/>
    </edge>
    <edge id=":gneJ136_0" function="internal">
        <lane id=":gneJ136_0_0" index="0" speed="13.89" length="15.10" shape="-180.46,61.05 -177.38,63.36 -174.30,65.74 -171.06,67.60 -167.52,68.35"/>
    </edge>
    <edge id=":gneJ136_1" function="internal">
        <lane id=":gneJ136_1_0" index="0" speed="13.89" length="15.15" shape="-182.03,64.25 -178.46,65.56 -174.87,66.89 -171.23,67.93 -167.52,68.35"/>
    </edge>
    <edge id=":gneJ136_2" function="internal">
        <lane id=":gneJ136_2_0" index="0" speed="13.89" length="13.58" shape="-181.09,68.35 -167.52,68.35"/>
    </edge>
    <edge id=":gneJ14_0" function="internal">
        <lane id=":gneJ14_0_0" index="0" speed="13.89" length="0.10" shape="-120.00,48.35 -120.00,48.35"/>
    </edge>
    <edge id=":gneJ141_0" function="internal">
        <lane id=":gneJ141_0_0" index="0" speed="13.89" length="13.58" shape="48.35,311.09 48.35,297.52"/>
    </edge>
    <edge id=":gneJ141_1" function="internal">
        <lane id=":gneJ141_1_0" index="0" speed="13.89" length="15.10" shape="41.05,310.46 43.36,307.38 45.74,304.30 47.60,301.06 48.35,297.52"/>
    </edge>
    <edge id=":gneJ141_2" function="internal">
        <lane id=":gneJ141_2_0" index="0" speed="13.89" length="15.15" shape="44.25,312.03 45.56,308.46 46.89,304.87 47.93,301.23 48.35,297.52"/>
    </edge>
    <edge id=":gneJ142_0" function="internal">
        <lane id=":gneJ142_0_0" index="0" speed="13.89" length="13.65" shape="38.35,311.63 38.35,297.97"/>
    </edge>
    <edge id=":gneJ142_1" function="internal">
        <lane id=":gneJ142_1_0" index="0" speed="13.89" length="13.63" shape="41.94,311.04 40.71,307.70 39.55,304.60 38.69,301.46 38.35,297.97"/>
    </edge>
    <edge id=":gneJ142_2" function="internal">
        <lane id=":gneJ142_2_0" index="0" speed="13.89" length="13.12" shape="34.76,310.51 35.99,307.25 37.15,304.34 38.01,301.37 38.35,297.97"/>
    </edge>
    <edge id=":gneJ143_0" function="internal">
        <lane id=":gneJ143_0_0" index="0" speed="13.89" length="13.11" shape="28.35,311.63 28.35,298.52"/>
    </edge>
    <edge id=":gneJ143_1" function="internal">
        <lane id=":gneJ143_1_0" index="0" speed="13.89" length="15.68" shape="32.76,313.49 31.40,309.85 29.96,306.10 28.82,302.30 28.35,298.52"/>
    </edge>
    <edge id=":gneJ143_2" function="internal">
        <lane id=":gneJ143_2_0" index="0" speed="13.89" length="15.65" shape="35.96,311.92 33.60,308.77 31.12,305.53 29.15,302.13 28.35,298.52"/>
    </edge>
    <edge id=":gneJ145_0" function="internal">
        <lane id=":gneJ145_0_0" index="0" speed="13.89" length="13.11" shape="81.65,-161.63 81.65,-148.52"/>
    </edge>
    <edge id=":gneJ145_1" function="internal">
        <lane id=":gneJ145_1_0" index="0" speed="13.89" length="15.68" shape="77.24,-163.49 78.60,-159.85 80.04,-156.10 81.18,-152.30 81.65,-148.52"/>
    </edge>
    <edge id=":gneJ145_2" function="internal">
        <lane id=":gneJ145_2_0" index="0" speed="13.89" length="15.65" shape="74.04,-161.92 76.40,-158.77 78.88,-155.53 80.85,-152.13 81.65,-148.52"/>
    </edge>
    <edge id=":gneJ146_0" function="internal">
        <lane id=":gneJ146_0_0" index="0" speed="13.89" length="13.12" shape="75.24,-160.51 74.01,-157.25 72.85,-154.34 71.99,-151.37 71.65,-147.97"/>
    </edge>
    <edge id=":gneJ146_1" function="internal">
        <lane id=":gneJ146_1_0" index="0" speed="13.89" length="13.65" shape="71.65,-161.63 71.65,-147.97"/>
    </edge>
    <edge id=":gneJ146_2" function="internal">
        <lane id=":gneJ146_2_0" index="0" speed="13.89" length="13.63" shape="68.06,-161.04 69.29,-157.70 70.45,-154.60 71.31,-151.46 71.65,-147.97"/>
    </edge>
    <edge id=":gneJ147_0" function="internal">
        <lane id=":gneJ147_0_0" index="0" speed="13.89" length="15.10" shape="68.95,-160.46 66.64,-157.38 64.26,-154.30 62.40,-151.06 61.65,-147.52"/>
    </edge>
    <edge id=":gneJ147_1" function="internal">
        <lane id=":gneJ147_1_0" index="0" speed="13.89" length="15.15" shape="65.75,-162.03 64.44,-158.46 63.11,-154.87 62.07,-151.23 61.65,-147.52"/>
    </edge>
    <edge id=":gneJ147_2" function="internal">
        <lane id=":gneJ147_2_0" index="0" speed="13.89" length="13.58" shape="61.65,-161.09 61.65,-147.52"/>
    </edge>
    <edge id=":gneJ15_0" function="internal">
        <lane id=":gneJ15_0_0" index="0" speed="13.89" length="19.31" shape="212.85,44.89 217.18,45.84 222.30,46.99 227.44,47.95 231.82,48.35"/>
    </edge>
    <edge id=":gneJ15_1" function="internal">
        <lane id=":gneJ15_1_0" index="0" speed="13.89" length="19.32" shape="212.50,48.35 231.82,48.35"/>
    </edge>
    <edge id=":gneJ16_0" function="internal">
        <lane id=":gneJ16_0_0" index="0" speed="13.89" length="0.10" shape="-120.00,58.35 -120.00,58.35"/>
    </edge>
    <edge id=":gneJ165_0" function="internal">
        <lane id=":gneJ165_0_0" index="0" speed="13.89" length="0.45" shape="28.41,-99.55 28.38,-99.68 28.36,-99.77 28.35,-99.86 28.35,-99.99"/>
    </edge>
    <edge id=":gneJ17_0" function="internal">
        <lane id=":gneJ17_0_0" index="0" speed="13.89" length="0.10" shape="230.00,58.35 230.00,58.35"/>
    </edge>
    <edge id=":gneJ175_0" function="internal">
        <lane id=":gneJ175_0_0" index="0" speed="13.89" length="10.16" shape="38.35,197.89 38.35,187.73"/>
    </edge>
    <edge id=":gneJ175_1" function="internal">
        <lane id=":gneJ175_1_0" index="0" speed="13.89" length="10.19" shape="34.65,197.01 36.17,194.38 37.34,192.57 38.09,190.66 38.35,187.73"/>
    </edge>
    <edge id=":gneJ18_0" function="internal">
        <lane id=":gneJ18_0_0" index="0" speed="13.89" length="0.10" shape="-120.00,68.35 -120.00,68.35"/>
    </edge>
    <edge id=":gneJ181_0" function="internal">
        <lane id=":gneJ181_0_0" index="0" speed="13.89" length="10.19" shape="75.35,-37.01 73.83,-34.38 72.66,-32.57 71.91,-30.66 71.65,-27.73"/>
    </edge>
    <edge id=":gneJ181_1" function="internal">
        <lane id=":gneJ181_1_0" index="0" speed="13.89" length="10.16" shape="71.65,-37.89 71.65,-27.73"/>
    </edge>
    <edge id=":gneJ182_0" function="internal">
        <lane id=":gneJ182_0_0" index="0" speed="13.89" length="0.75" shape="81.65,-49.99 81.65,-49.77 81.63,-49.62 81.58,-49.47 81.48,-49.27"/>
    </edge>
    <edge id=":gneJ185_0" function="internal">
        <lane id=":gneJ185_0_0" index="0" speed="13.89" length="0.75" shape="28.35,209.99 28.35,209.77 28.37,209.62 28.42,209.47 28.52,209.27"/>
    </edge>
    <edge id=":gneJ186_0" function="internal">
        <lane id=":gneJ186_0_0" index="0" speed="13.89" length="2.01" shape="61.65,0.04 61.58,0.56 61.38,0.99 61.03,1.32 60.56,1.55"/>
    </edge>
    <edge id=":gneJ187_0" function="internal">
        <lane id=":gneJ187_0_0" index="0" speed="13.89" length="10.16" shape="71.65,-1.49 71.65,8.67"/>
    </edge>
    <edge id=":gneJ187_1" function="internal">
        <lane id=":gneJ187_1_0" index="0" speed="13.89" length="10.19" shape="71.65,-1.49 71.39,1.44 70.64,3.35 69.47,5.16 67.95,7.79"/>
    </edge>
    <edge id=":gneJ188_0" function="internal">
        <lane id=":gneJ188_0_0" index="0" speed="13.89" length="0.75" shape="61.82,20.05 61.72,20.25 61.67,20.39 61.65,20.55 61.65,20.77"/>
    </edge>
    <edge id=":gneJ189_0" function="internal">
        <lane id=":gneJ189_0_0" index="0" speed="13.89" length="0.10" shape="61.65,70.00 61.65,70.00"/>
    </edge>
    <edge id=":gneJ19_0" function="internal">
        <lane id=":gneJ19_0_0" index="0" speed="13.89" length="0.10" shape="230.00,68.35 230.00,68.35"/>
    </edge>
    <edge id=":gneJ190_0" function="internal">
        <lane id=":gneJ190_0_0" index="0" speed="13.89" length="2.58" shape="71.65,36.75 71.75,37.45 72.05,37.95 72.55,38.25 73.25,38.35"/>
    </edge>
    <edge id=":gneJ191_0" function="internal">
        <lane id=":gneJ191_0_0" index="0" speed="13.89" length="0.32" shape="180.00,38.35 180.10,38.35 180.16,38.35 180.23,38.36 180.32,38.38"/>
    </edge>
    <edge id=":gneJ192_0" function="internal">
        <lane id=":gneJ192_0_0" index="0" speed="13.89" length="1.02" shape="31.52,11.23 31.24,11.33 31.06,11.43 30.91,11.58 30.73,11.82"/>
    </edge>
    <edge id=":gneJ193_0" function="internal">
        <lane id=":gneJ193_0_0" index="0" speed="13.89" length="6.93" shape="-14.54,81.65 -21.47,81.65"/>
    </edge>
    <edge id=":gneJ193_1" function="internal">
        <lane id=":gneJ193_1_0" index="0" speed="13.89" length="2.86" shape="-16.47,77.90 -17.79,79.54 -18.34,80.05"/>
    </edge>
    <edge id=":gneJ193_2" function="internal">
        <lane id=":gneJ193_2_0" index="0" speed="13.89" length="3.60" shape="-18.34,80.05 -19.06,80.71 -20.29,81.42 -21.47,81.65"/>
    </edge>
    <edge id=":gneJ195_0" function="internal">
        <lane id=":gneJ195_0_0" index="0" speed="13.89" length="13.12" shape="38.35,151.49 38.35,138.37"/>
    </edge>
    <edge id=":gneJ195_1" function="internal">
        <lane id=":gneJ195_1_0" index="0" speed="13.89" length="13.12" shape="38.35,151.49 38.69,148.09 39.55,145.13 40.71,142.21 41.94,138.96"/>
    </edge>
    <edge id=":gneJ196_0" function="internal">
        <lane id=":gneJ196_0_0" index="0" speed="13.89" length="0.52" shape="48.27,119.98 48.31,119.83 48.34,119.73 48.35,119.63 48.35,119.47"/>
    </edge>
    <edge id=":gneJ197_0" function="internal">
        <lane id=":gneJ197_0_0" index="0" speed="13.89" length="0.10" shape="48.35,80.00 48.35,80.00"/>
    </edge>
    <edge id=":gneJ198_0" function="internal">
        <lane id=":gneJ198_0_0" index="0" speed="13.89" length="2.58" shape="38.35,123.25 38.25,122.55 37.95,122.05 37.45,121.75 36.75,121.65"/>
    </edge>
    <edge id=":gneJ199_0" function="internal">
        <lane id=":gneJ199_0_0" index="0" speed="13.89" length="0.61" shape="-70.01,121.65 -70.19,121.65 -70.31,121.63 -70.44,121.60 -70.60,121.54"/>
    </edge>
    <edge id=":gneJ2_0" function="internal">
        <lane id=":gneJ2_0_0" index="0" speed="13.89" length="0.10" shape="61.65,-100.00 61.65,-100.00"/>
    </edge>
    <edge id=":gneJ20_0" function="internal">
        <lane id=":gneJ20_0_0" index="0" speed="13.89" length="0.10" shape="230.00,81.65 230.00,81.65"/>
    </edge>
    <edge id=":gneJ200_0" function="internal">
        <lane id=":gneJ200_0_0" index="0" speed="13.89" length="2.01" shape="48.35,149.96 48.42,149.44 48.62,149.01 48.97,148.68 49.44,148.45"/>
    </edge>
    <edge id=":gneJ201_0" function="internal">
        <lane id=":gneJ201_0_0" index="0" speed="13.89" length="1.02" shape="78.48,138.77 78.76,138.67 78.94,138.57 79.09,138.42 79.27,138.18"/>
    </edge>
    <edge id=":gneJ203_0" function="internal">
        <lane id=":gneJ203_0_0" index="0" speed="13.89" length="6.93" shape="124.54,68.35 131.47,68.35"/>
    </edge>
    <edge id=":gneJ203_1" function="internal">
        <lane id=":gneJ203_1_0" index="0" speed="13.89" length="2.86" shape="126.47,72.10 127.79,70.46 128.34,69.95"/>
    </edge>
    <edge id=":gneJ203_2" function="internal">
        <lane id=":gneJ203_2_0" index="0" speed="13.89" length="3.60" shape="128.34,69.95 129.06,69.29 130.29,68.58 131.47,68.35"/>
    </edge>
    <edge id=":gneJ21_0" function="internal">
        <lane id=":gneJ21_0_0" index="0" speed="13.89" length="0.10" shape="-120.00,81.65 -120.00,81.65"/>
    </edge>
    <edge id=":gneJ22_0" function="internal">
        <lane id=":gneJ22_0_0" index="0" speed="13.89" length="0.10" shape="230.00,91.65 230.00,91.65"/>
    </edge>
    <edge id=":gneJ24_0" function="internal">
        <lane id=":gneJ24_0_0" index="0" speed="13.89" length="0.10" shape="230.00,101.65 230.00,101.65"/>
    </edge>
    <edge id=":gneJ25_0" function="internal">
        <lane id=":gneJ25_0_0" index="0" speed="13.89" length="11.63" shape="-111.21,105.29 -114.17,103.94 -116.53,102.77 -118.96,101.96 -122.13,101.65"/>
    </edge>
    <edge id=":gneJ25_1" function="internal">
        <lane id=":gneJ25_1_0" index="0" speed="13.89" length="11.62" shape="-110.51,101.65 -122.13,101.65"/>
    </edge>
    <edge id=":gneJ3_0" function="internal">
        <lane id=":gneJ3_0_0" index="0" speed="13.89" length="23.49" shape="61.65,187.97 62.50,192.91 64.50,199.27 66.79,205.57 68.53,210.37"/>
    </edge>
    <edge id=":gneJ3_1" function="internal">
        <lane id=":gneJ3_1_0" index="0" speed="13.89" length="23.51" shape="61.65,187.97 62.09,193.02 63.12,199.61 64.30,206.19 65.21,211.20"/>
    </edge>
    <edge id=":gneJ3_2" function="internal">
        <lane id=":gneJ3_2_0" index="0" speed="13.89" length="22.72" shape="61.65,187.97 61.65,210.70"/>
    </edge>
    <edge id=":gneJ38_0" function="internal">
        <lane id=":gneJ38_0_0" index="0" speed="13.89" length="13.11" shape="768.52,48.35 781.63,48.35"/>
    </edge>
    <edge id=":gneJ38_1" function="internal">
        <lane id=":gneJ38_1_0" index="0" speed="13.89" length="15.68" shape="768.52,48.35 772.30,48.82 776.10,49.96 779.85,51.40 783.49,52.76"/>
    </edge>
    <edge id=":gneJ38_2" function="internal">
        <lane id=":gneJ38_2_0" index="0" speed="13.89" length="15.65" shape="768.52,48.35 772.13,49.15 775.53,51.12 778.77,53.60 781.92,55.96"/>
    </edge>
    <edge id=":gneJ39_0" function="internal">
        <lane id=":gneJ39_0_0" index="0" speed="13.89" length="12.62" shape="768.51,58.35 771.83,58.01 774.60,57.15 777.34,55.99 780.51,54.76"/>
    </edge>
    <edge id=":gneJ39_1" function="internal">
        <lane id=":gneJ39_1_0" index="0" speed="13.89" length="13.12" shape="768.51,58.35 781.63,58.35"/>
    </edge>
    <edge id=":gneJ39_2" function="internal">
        <lane id=":gneJ39_2_0" index="0" speed="13.89" length="13.12" shape="768.51,58.35 771.91,58.69 774.87,59.55 777.79,60.71 781.04,61.94"/>
    </edge>
    <edge id=":gneJ4_0" function="internal">
        <lane id=":gneJ4_0_0" index="0" speed="13.89" length="0.10" shape="71.65,-100.00 71.65,-100.00"/>
    </edge>
    <edge id=":gneJ40_0" function="internal">
        <lane id=":gneJ40_0_0" index="0" speed="13.89" length="15.10" shape="767.52,68.35 771.06,67.60 774.30,65.74 777.38,63.36 780.46,61.05"/>
    </edge>
    <edge id=":gneJ40_1" function="internal">
        <lane id=":gneJ40_1_0" index="0" speed="13.89" length="15.15" shape="767.52,68.35 771.23,67.93 774.87,66.89 778.46,65.56 782.03,64.25"/>
    </edge>
    <edge id=":gneJ40_2" function="internal">
        <lane id=":gneJ40_2_0" index="0" speed="13.89" length="13.58" shape="767.52,68.35 781.09,68.35"/>
    </edge>
    <edge id=":gneJ44_0" function="internal">
        <lane id=":gneJ44_0_0" index="0" speed="13.89" length="13.11" shape="-588.52,101.65 -601.63,101.65"/>
    </edge>
    <edge id=":gneJ44_1" function="internal">
        <lane id=":gneJ44_1_0" index="0" speed="13.89" length="15.68" shape="-588.52,101.65 -592.30,101.18 -596.10,100.04 -599.85,98.60 -603.49,97.24"/>
    </edge>
    <edge id=":gneJ44_2" function="internal">
        <lane id=":gneJ44_2_0" index="0" speed="13.89" length="15.65" shape="-588.52,101.65 -592.13,100.85 -595.53,98.88 -598.77,96.40 -601.92,94.04"/>
    </edge>
    <edge id=":gneJ46_0" function="internal">
        <lane id=":gneJ46_0_0" index="0" speed="13.89" length="12.62" shape="-588.51,91.65 -591.83,91.99 -594.60,92.85 -597.34,94.01 -600.51,95.24"/>
    </edge>
    <edge id=":gneJ46_1" function="internal">
        <lane id=":gneJ46_1_0" index="0" speed="13.89" length="13.12" shape="-588.51,91.65 -601.63,91.65"/>
    </edge>
    <edge id=":gneJ46_2" function="internal">
        <lane id=":gneJ46_2_0" index="0" speed="13.89" length="13.12" shape="-588.51,91.65 -591.91,91.31 -594.87,90.45 -597.79,89.29 -601.04,88.06"/>
    </edge>
    <edge id=":gneJ47_0" function="internal">
        <lane id=":gneJ47_0_0" index="0" speed="13.89" length="15.10" shape="-587.52,81.65 -591.06,82.40 -594.30,84.26 -597.38,86.64 -600.46,88.95"/>
    </edge>
    <edge id=":gneJ47_1" function="internal">
        <lane id=":gneJ47_1_0" index="0" speed="13.89" length="15.15" shape="-587.52,81.65 -591.23,82.07 -594.87,83.11 -598.46,84.44 -602.03,85.75"/>
    </edge>
    <edge id=":gneJ47_2" function="internal">
        <lane id=":gneJ47_2_0" index="0" speed="13.89" length="13.58" shape="-587.52,81.65 -601.09,81.65"/>
    </edge>
    <edge id=":gneJ5_0" function="internal">
        <lane id=":gneJ5_0_0" index="0" speed="13.89" length="0.26" shape="71.63,249.73 71.64,249.81 71.65,249.86 71.65,249.92 71.65,250.00"/>
    </edge>
    <edge id=":gneJ52_0" function="internal">
        <lane id=":gneJ52_0_0" index="0" speed="13.89" length="15.10" shape="-202.48,68.35 -198.94,67.60 -195.70,65.74 -192.62,63.36 -189.54,61.05"/>
    </edge>
    <edge id=":gneJ52_1" function="internal">
        <lane id=":gneJ52_1_0" index="0" speed="13.89" length="15.15" shape="-202.48,68.35 -198.77,67.93 -195.13,66.89 -191.54,65.56 -187.97,64.25"/>
    </edge>
    <edge id=":gneJ52_2" function="internal">
        <lane id=":gneJ52_2_0" index="0" speed="13.89" length="13.58" shape="-202.48,68.35 -188.91,68.35"/>
    </edge>
    <edge id=":gneJ54_0" function="internal">
        <lane id=":gneJ54_0_0" index="0" speed="13.89" length="12.62" shape="-201.49,58.35 -198.17,58.01 -195.40,57.15 -192.66,55.99 -189.49,54.76"/>
    </edge>
    <edge id=":gneJ54_1" function="internal">
        <lane id=":gneJ54_1_0" index="0" speed="13.89" length="13.12" shape="-201.49,58.35 -188.37,58.35"/>
    </edge>
    <edge id=":gneJ54_2" function="internal">
        <lane id=":gneJ54_2_0" index="0" speed="13.89" length="13.12" shape="-201.49,58.35 -198.09,58.69 -195.13,59.55 -192.21,60.71 -188.96,61.94"/>
    </edge>
    <edge id=":gneJ56_0" function="internal">
        <lane id=":gneJ56_0_0" index="0" speed="13.89" length="13.11" shape="-201.48,48.35 -188.37,48.35"/>
    </edge>
    <edge id=":gneJ56_1" function="internal">
        <lane id=":gneJ56_1_0" index="0" speed="13.89" length="15.68" shape="-201.48,48.35 -197.70,48.82 -193.90,49.96 -190.15,51.40 -186.51,52.76"/>
    </edge>
    <edge id=":gneJ56_2" function="internal">
        <lane id=":gneJ56_2_0" index="0" speed="13.89" length="15.65" shape="-201.48,48.35 -197.87,49.15 -194.47,51.12 -191.23,53.60 -188.08,55.96"/>
    </edge>
    <edge id=":gneJ58_0" function="internal">
        <lane id=":gneJ58_0_0" index="0" speed="13.89" length="15.10" shape="312.48,81.65 308.94,82.40 305.70,84.26 302.62,86.64 299.54,88.95"/>
    </edge>
    <edge id=":gneJ58_1" function="internal">
        <lane id=":gneJ58_1_0" index="0" speed="13.89" length="15.15" shape="312.48,81.65 308.77,82.07 305.13,83.11 301.54,84.44 297.97,85.75"/>
    </edge>
    <edge id=":gneJ58_2" function="internal">
        <lane id=":gneJ58_2_0" index="0" speed="13.89" length="13.58" shape="312.48,81.65 298.91,81.65"/>
    </edge>
    <edge id=":gneJ6_0" function="internal">
        <lane id=":gneJ6_0_0" index="0" speed="13.89" length="0.10" shape="81.65,-100.00 81.65,-100.00"/>
    </edge>
    <edge id=":gneJ60_0" function="internal">
        <lane id=":gneJ60_0_0" index="0" speed="13.89" length="12.62" shape="311.49,91.65 308.17,91.99 305.40,92.85 302.66,94.01 299.49,95.24"/>
    </edge>
    <edge id=":gneJ60_1" function="internal">
        <lane id=":gneJ60_1_0" index="0" speed="13.89" length="13.12" shape="311.49,91.65 298.37,91.65"/>
    </edge>
    <edge id=":gneJ60_2" function="internal">
        <lane id=":gneJ60_2_0" index="0" speed="13.89" length="13.12" shape="311.49,91.65 308.09,91.31 305.13,90.45 302.21,89.29 298.96,88.06"/>
    </edge>
    <edge id=":gneJ62_0" function="internal">
        <lane id=":gneJ62_0_0" index="0" speed="13.89" length="13.11" shape="311.48,101.65 298.37,101.65"/>
    </edge>
    <edge id=":gneJ62_1" function="internal">
        <lane id=":gneJ62_1_0" index="0" speed="13.89" length="15.68" shape="311.48,101.65 307.70,101.18 303.90,100.04 300.15,98.60 296.51,97.24"/>
    </edge>
    <edge id=":gneJ62_2" function="internal">
        <lane id=":gneJ62_2_0" index="0" speed="13.89" length="15.65" shape="311.48,101.65 307.87,100.85 304.47,98.88 301.23,96.40 298.08,94.04"/>
    </edge>
    <edge id=":gneJ63_0" function="internal">
        <lane id=":gneJ63_0_0" index="0" speed="13.89" length="13.11" shape="28.35,-538.52 28.35,-551.63"/>
    </edge>
    <edge id=":gneJ63_1" function="internal">
        <lane id=":gneJ63_1_0" index="0" speed="13.89" length="15.68" shape="28.35,-538.52 28.82,-542.30 29.96,-546.10 31.40,-549.85 32.76,-553.49"/>
    </edge>
    <edge id=":gneJ63_2" function="internal">
        <lane id=":gneJ63_2_0" index="0" speed="13.89" length="15.65" shape="28.35,-538.52 29.15,-542.13 31.12,-545.53 33.60,-548.77 35.96,-551.92"/>
    </edge>
    <edge id=":gneJ64_0" function="internal">
        <lane id=":gneJ64_0_0" index="0" speed="13.89" length="13.12" shape="38.35,-537.97 38.01,-541.37 37.15,-544.34 35.99,-547.25 34.76,-550.51"/>
    </edge>
    <edge id=":gneJ64_1" function="internal">
        <lane id=":gneJ64_1_0" index="0" speed="13.89" length="13.65" shape="38.35,-537.97 38.35,-551.63"/>
    </edge>
    <edge id=":gneJ64_2" function="internal">
        <lane id=":gneJ64_2_0" index="0" speed="13.89" length="13.63" shape="38.35,-537.97 38.69,-541.46 39.55,-544.60 40.71,-547.70 41.94,-551.04"/>
    </edge>
    <edge id=":gneJ65_0" function="internal">
        <lane id=":gneJ65_0_0" index="0" speed="13.89" length="15.10" shape="48.35,-537.52 47.60,-541.06 45.74,-544.30 43.36,-547.38 41.05,-550.46"/>
    </edge>
    <edge id=":gneJ65_1" function="internal">
        <lane id=":gneJ65_1_0" index="0" speed="13.89" length="15.15" shape="48.35,-537.52 47.93,-541.23 46.89,-544.87 45.56,-548.46 44.25,-552.03"/>
    </edge>
    <edge id=":gneJ65_2" function="internal">
        <lane id=":gneJ65_2_0" index="0" speed="13.89" length="13.58" shape="48.35,-537.52 48.35,-551.09"/>
    </edge>
    <edge id=":gneJ67_0" function="internal">
        <lane id=":gneJ67_0_0" index="0" speed="13.89" length="15.10" shape="61.65,-182.48 62.40,-178.94 64.26,-175.70 66.64,-172.62 68.95,-169.54"/>
    </edge>
    <edge id=":gneJ67_1" function="internal">
        <lane id=":gneJ67_1_0" index="0" speed="13.89" length="15.15" shape="61.65,-182.48 62.07,-178.77 63.11,-175.13 64.44,-171.54 65.75,-167.97"/>
    </edge>
    <edge id=":gneJ67_2" function="internal">
        <lane id=":gneJ67_2_0" index="0" speed="13.89" length="13.58" shape="61.65,-182.48 61.65,-168.91"/>
    </edge>
    <edge id=":gneJ69_0" function="internal">
        <lane id=":gneJ69_0_0" index="0" speed="13.89" length="12.62" shape="71.65,-181.49 71.99,-178.17 72.85,-175.40 74.01,-172.66 75.24,-169.49"/>
    </edge>
    <edge id=":gneJ69_1" function="internal">
        <lane id=":gneJ69_1_0" index="0" speed="13.89" length="13.12" shape="71.65,-181.49 71.65,-168.37"/>
    </edge>
    <edge id=":gneJ69_2" function="internal">
        <lane id=":gneJ69_2_0" index="0" speed="13.89" length="13.12" shape="71.65,-181.49 71.31,-178.09 70.45,-175.13 69.29,-172.21 68.06,-168.96"/>
    </edge>
    <edge id=":gneJ7_0" function="internal">
        <lane id=":gneJ7_0_0" index="0" speed="13.89" length="0.52" shape="81.57,249.49 81.61,249.63 81.64,249.73 81.65,249.84 81.65,249.99"/>
    </edge>
    <edge id=":gneJ71_0" function="internal">
        <lane id=":gneJ71_0_0" index="0" speed="13.89" length="13.11" shape="81.65,-181.48 81.65,-168.37"/>
    </edge>
    <edge id=":gneJ71_1" function="internal">
        <lane id=":gneJ71_1_0" index="0" speed="13.89" length="15.68" shape="81.65,-181.48 81.18,-177.70 80.04,-173.90 78.60,-170.15 77.24,-166.51"/>
    </edge>
    <edge id=":gneJ71_2" function="internal">
        <lane id=":gneJ71_2_0" index="0" speed="13.89" length="15.65" shape="81.65,-181.48 80.85,-177.87 78.88,-174.47 76.40,-171.23 74.04,-168.08"/>
    </edge>
    <edge id=":gneJ73_0" function="internal">
        <lane id=":gneJ73_0_0" index="0" speed="13.89" length="13.11" shape="81.65,748.52 81.65,761.63"/>
    </edge>
    <edge id=":gneJ73_1" function="internal">
        <lane id=":gneJ73_1_0" index="0" speed="13.89" length="15.68" shape="81.65,748.52 81.18,752.30 80.04,756.10 78.60,759.85 77.24,763.49"/>
    </edge>
    <edge id=":gneJ73_2" function="internal">
        <lane id=":gneJ73_2_0" index="0" speed="13.89" length="15.65" shape="81.65,748.52 80.85,752.13 78.88,755.53 76.40,758.77 74.04,761.92"/>
    </edge>
    <edge id=":gneJ74_0" function="internal">
        <lane id=":gneJ74_0_0" index="0" speed="13.89" length="12.62" shape="71.65,748.51 71.99,751.83 72.85,754.60 74.01,757.34 75.24,760.51"/>
    </edge>
    <edge id=":gneJ74_1" function="internal">
        <lane id=":gneJ74_1_0" index="0" speed="13.89" length="13.12" shape="71.65,748.51 71.65,761.63"/>
    </edge>
    <edge id=":gneJ74_2" function="internal">
        <lane id=":gneJ74_2_0" index="0" speed="13.89" length="13.12" shape="71.65,748.51 71.31,751.91 70.45,754.87 69.29,757.79 68.06,761.04"/>
    </edge>
    <edge id=":gneJ75_0" function="internal">