<?xml version="1.0" encoding="UTF-8"?>

<!-- generated on 6/25/2018 12:19:26 PM by Netedit Version 0.32.0
<?xml version="1.0" encoding="UTF-8"?>

<configuration xmlns:xsi="http://www.w3.org/2001/XMLSchema-instance" xsi:noNamespaceSchemaLocation="http://sumo.dlr.de/xsd/netconvertConfiguration.xsd">

    <input>
        <sumo-net-file value="C:\Users\abeld\Downloads\Intersection\ContinuousFlow\continuousflow.net.xml"/>
    </input>

    <output>
        <output-file value="C:\Users\abeld\Downloads\Intersection\ContinuousFlow\continuousflow.net.xml"/>
        <plain-output-prefix value="C:\Users\abeld\Downloads\Intersection\ContinuousFlow\ContinuousFlow"/>
    </output>

    <processing>
        <no-turnarounds value="true"/>
        <offset.disable-normalization value="true"/>
        <lefthand value="false"/>
        <junctions.corner-detail value="0"/>
        <rectangular-lane-cut value="false"/>
        <walkingareas value="false"/>
    </processing>

</configuration>
-->

<nodes version="0.27" xmlns:xsi="http://www.w3.org/2001/XMLSchema-instance" xsi:noNamespaceSchemaLocation="http://sumo.dlr.de/xsd/nodes_file.xsd">
    <location netOffset="0.00,0.00" convBoundary="-620.00,-570.00,800.00,780.00" origBoundary="-10000000000.00,-10000000000.00,10000000000.00,10000000000.00" projParameter="!"/>

    <node id="east-out1" x="800.00" y="70.00" type="dead_end"/>
    <node id="east-out2" x="800.00" y="60.00" type="dead_end"/>
    <node id="east-out3" x="800.00" y="50.00" type="dead_end"/>
    <node id="east1" x="800.00" y="80.00" type="dead_end"/>
    <node id="east2" x="800.00" y="90.00" type="dead_end"/>
    <node id="east3" x="800.00" y="100.00" type="dead_end"/>
    <node id="gneJ10" x="40.00" y="250.00" type="priority"/>
    <node id="gneJ102" x="280.00" y="80.00" type="priority"/>
    <node id="gneJ103" x="280.00" y="90.00" type="priority"/>
    <node id="gneJ104" x="280.00" y="100.00" type="priority"/>
    <node id="gneJ11" x="40.00" y="-100.00" type="priority"/>
    <node id="gneJ12" x="30.00" y="250.00" type="priority"/>
    <node id="gneJ134" x="-170.00" y="50.00" type="priority"/>
    <node id="gneJ135" x="-170.00" y="60.00" type="priority"/>
    <node id="gneJ136" x="-170.00" y="70.00" type="priority"/>
    <node id="gneJ14" x="-120.00" y="50.00" type="priority"/>
    <node id="gneJ141" x="50.00" y="300.00" type="priority"/>
    <node id="gneJ142" x="40.00" y="300.00" type="priority"/>
    <node id="gneJ143" x="30.00" y="300.00" type="priority"/>
    <node id="gneJ145" x="80.00" y="-150.00" type="priority"/>
    <node id="gneJ146" x="70.00" y="-150.00" type="priority"/>
    <node id="gneJ147" x="60.00" y="-150.00" type="priority"/>
    <node id="gneJ15" x="230.00" y="50.00" type="priority"/>
    <node id="gneJ156" x="-620.00" y="100.00" type="dead_end"/>
    <node id="gneJ16" x="-120.00" y="60.00" type="priority"/>
    <node id="gneJ165" x="30.00" y="-100.00" type="priority"/>
    <node id="gneJ17" x="230.00" y="60.00" type="priority"/>
    <node id="gneJ175" x="40.00" y="190.00" type="priority"/>
    <node id="gneJ18" x="-120.00" y="70.00" type="priority"/>
    <node id="gneJ181" x="70.00" y="-30.00" type="priority"/>
    <node id="gneJ182" x="80.00" y="-50.00" type="priority"/>
    <node id="gneJ185" x="30.00" y="210.00" type="priority"/>
    <node id="gneJ186" x="60.00" y="0.00" type="priority"/>
    <node id="gneJ187" x="70.00" y="0.00" type="priority"/>
    <node id="gneJ188" x="60.00" y="20.00" type="priority"/>
    <node id="gneJ189" x="60.00" y="70.00" type="priority"/>
    <node id="gneJ19" x="230.00" y="70.00" type="priority"/>
    <node id="gneJ190" x="70.00" y="40.00" type="priority"/>
    <node id="gneJ191" x="180.00" y="40.00" type="priority"/>
    <node id="gneJ192" x="30.00" y="10.00" type="priority"/>
    <node id="gneJ193" x="-20.00" y="80.00" type="priority"/>
    <node id="gneJ195" x="40.00" y="150.00" type="priority"/>
    <node id="gneJ196" x="50.00" y="120.00" type="priority"/>
    <node id="gneJ197" x="50.00" y="80.00" type="priority"/>
    <node id="gneJ198" x="40.00" y="120.00" type="priority"/>
    <node id="gneJ199" x="-70.00" y="120.00" type="priority"/>
    <node id="gneJ2" x="60.00" y="-100.00" type="priority"/>
    <node id="gneJ20" x="230.00" y="80.00" type="priority"/>
    <node id="gneJ200" x="50.00" y="150.00" type="priority"/>
    <node id="gneJ201" x="80.00" y="140.00" type="priority"/>
    <node id="gneJ203" x="130.00" y="70.00" type="priority"/>
    <node id="gneJ21" x="-120.00" y="80.00" type="priority"/>
    <node id="gneJ22" x="230.00" y="90.00" type="priority"/>
    <node id="gneJ23" x="-120.00" y="90.00" type="dead_end"/>
    <node id="gneJ24" x="230.00" y="100.00" type="priority"/>
    <node id="gneJ25" x="-120.00" y="100.00" type="priority"/>
    <node id="gneJ3" x="60.00" y="190.00" type="priority"/>
    <node id="gneJ38" x="770.00" y="50.00" type="priority"/>
    <node id="gneJ39" x="770.00" y="60.00" type="priority"/>
    <node id="gneJ4" x="70.00" y="-100.00" type="priority"/>
    <node id="gneJ40" x="770.00" y="70.00" type="priority"/>
    <node id="gneJ44" x="-590.00" y="100.00" type="priority"/>
    <node id="gneJ45" x="-120.00" y="90.00" type="dead_end"/>
    <node id="gneJ46" x="-590.00" y="90.00" type="priority"/>
    <node id="gneJ47" x="-590.00" y="80.00" type="priority"/>
    <node id="gneJ5" x="70.00" y="250.00" type="priority"/>
    <node id="gneJ52" x="-200.00" y="70.00" type="priority"/>
    <node id="gneJ54" x="-200.00" y="60.00" type="priority"/>
    <node id="gneJ56" x="-200.00" y="50.00" type="priority"/>
    <node id="gneJ58" x="310.00" y="80.00" type="priority"/>
    <node id="gneJ6" x="80.00" y="-100.00" type="priority"/>
    <node id="gneJ60" x="310.00" y="90.00" type="priority"/>
    <node id="gneJ62" x="310.00" y="100.00" type="priority"/>
    <node id="gneJ63" x="30.00" y="-540.00" type="priority"/>
    <node id="gneJ64" x="40.00" y="-540.00" type="priority"/>
    <node id="gneJ65" x="50.00" y="-540.00" type="priority"/>
    <node id="gneJ67" x="60.00" y="-180.00" type="priority"/>
    <node id="gneJ69" x="70.00" y="-180.00" type="priority"/>
    <node id="gneJ7" x="80.00" y="250.00" type="priority"/>
    <node id="gneJ71" x="80.00" y="-180.00" type="priority"/>
    <node id="gneJ73" x="80.00" y="750.00" type="priority"/>
    <node id="gneJ74" x="70.00" y="750.00" type="priority"/>
    <node id="gneJ75" x="60.00" y="750.00" type="priority"/>
    <node id="gneJ77" x="50.00" y="330.00" type="priority"/>
    <node id="gneJ79" x="40.00" y="330.00" type="priority"/>
    <node id="gneJ8" x="50.00" y="250.00" type="priority"/>
    <node id="gneJ81" x="30.00" y="330.00" type="priority"/>
    <node id="gneJ9" x="50.00" y="-30.00" type="priority"/>
    <node id="north-out1" x="60.00" y="780.00" type="dead_end"/>
    <node id="north-out2" x="70.00" y="780.00" type="dead_end"/>
    <node id="north-out3" x="80.00" y="780.00" type="dead_end"/>
    <node id="north1" x="50.00" y="780.00" type="dead_end"/>
    <node id="north2" x="40.00" y="780.00" type="dead_end"/>
    <node id="north3" x="30.00" y="780.00" type="dead_end"/>
    <node id="south-out1" x="50.00" y="-570.00" type="dead_end"/>
    <node id="south-out2" x="40.00" y="-570.00" type="dead_end"/>
    <node id="south-out3" x="30.00" y="-570.00" type="dead_end"/>
    <node id="south1" x="60.00" y="-570.00" type="dead_end"/>
    <node id="south2" x="70.00" y="-570.00" type="dead_end"/>
    <node id="south3" x="80.00" y="-570.00" type="dead_end"/>
    <node id="west-out1" x="-620.00" y="80.00" type="dead_end"/>
    <node id="west-out2" x="-620.00" y="90.00" type="dead_end"/>
    <node id="west-out3" x="-620.00" y="100.00" type="dead_end"/>
    <node id="west1" x="-620.00" y="70.00" type="dead_end"/>
    <node id="west2" x="-620.00" y="60.00" type="dead_end"/>
    <node id="west3" x="-620.00" y="50.00" type="dead_end"/>
</nodes>
