<?xml version="1.0" encoding="UTF-8"?>

<!-- generated on 6/25/2018 12:07:19 PM by Netedit Version 0.32.0
<?xml version="1.0" encoding="UTF-8"?>

<configuration xmlns:xsi="http://www.w3.org/2001/XMLSchema-instance" xsi:noNamespaceSchemaLocation="http://sumo.dlr.de/xsd/netconvertConfiguration.xsd">

    <input>
        <sumo-net-file value="C:\Users\abeld\Downloads\Intersection\DivergingDiamond\DivergingDiamond.net.xml"/>
    </input>

    <output>
        <output-file value="C:\Users\abeld\Downloads\Intersection\DivergingDiamond\DivergingDiamond.net.xml"/>
    </output>

    <processing>
        <no-turnarounds value="true"/>
        <offset.disable-normalization value="true"/>
        <lefthand value="false"/>
        <junctions.corner-detail value="0"/>
        <rectangular-lane-cut value="false"/>
        <walkingareas value="false"/>
    </processing>

</configuration>
-->

<net version="0.27" xmlns:xsi="http://www.w3.org/2001/XMLSchema-instance" xsi:noNamespaceSchemaLocation="http://sumo.dlr.de/xsd/net_file.xsd">

    <location netOffset="0.00,0.00" convBoundary="-620.00,-570.00,800.00,780.00" origBoundary="-10000000000.00,-10000000000.00,10000000000.00,10000000000.00" projParameter="!"/>

    <edge id=":gneJ10_0" function="internal">
        <lane id=":gneJ10_0_0" index="0" speed="13.89" length="0.10" shape="38.35,250.00 38.35,250.00"/>
    </edge>
    <edge id=":gneJ102_0" function="internal">
        <lane id=":gneJ102_0_0" index="0" speed="13.89" length="15.10" shape="290.46,88.95 287.38,86.64 284.30,84.26 281.06,82.40 277.52,81.65"/>
    </edge>
    <edge id=":gneJ102_1" function="internal">
        <lane id=":gneJ102_1_0" index="0" speed="13.89" length="15.15" shape="292.03,85.75 288.46,84.44 284.87,83.11 281.23,82.07 277.52,81.65"/>
    </edge>
    <edge id=":gneJ102_2" function="internal">
        <lane id=":gneJ102_2_0" index="0" speed="13.89" length="13.58" shape="291.09,81.65 277.52,81.65"/>
    </edge>
    <edge id=":gneJ103_0" function="internal">
        <lane id=":gneJ103_0_0" index="0" speed="13.89" length="13.12" shape="290.51,95.24 287.25,94.01 284.34,92.85 281.37,91.99 277.97,91.65"/>
    </edge>
    <edge id=":gneJ103_1" function="internal">
        <lane id=":gneJ103_1_0" index="0" speed="13.89" length="13.65" shape="291.63,91.65 277.97,91.65"/>
    </edge>
    <edge id=":gneJ103_2" function="internal">
        <lane id=":gneJ103_2_0" index="0" speed="13.89" length="13.63" shape="291.04,88.06 287.70,89.29 284.60,90.45 281.46,91.31 277.97,91.65"/>
    </edge>
    <edge id=":gneJ104_0" function="internal">
        <lane id=":gneJ104_0_0" index="0" speed="13.89" length="13.11" shape="291.63,101.65 278.52,101.65"/>
    </edge>
    <edge id=":gneJ104_1" function="internal">
        <lane id=":gneJ104_1_0" index="0" speed="13.89" length="15.68" shape="293.49,97.24 289.85,98.60 286.10,100.04 282.30,101.18 278.52,101.65"/>
    </edge>
    <edge id=":gneJ104_2" function="internal">
        <lane id=":gneJ104_2_0" index="0" speed="13.89" length="15.65" shape="291.92,94.04 288.77,96.40 285.53,98.88 282.13,100.85 278.52,101.65"/>
    </edge>
    <edge id=":gneJ11_0" function="internal">
        <lane id=":gneJ11_0_0" index="0" speed="13.89" length="0.10" shape="38.35,-100.00 38.35,-100.00"/>
    </edge>
    <edge id=":gneJ12_0" function="internal">
        <lane id=":gneJ12_0_0" index="0" speed="13.89" length="0.10" shape="28.35,250.00 28.35,250.00"/>
    </edge>
    <edge id=":gneJ134_0" function="internal">
        <lane id=":gneJ134_0_0" index="0" speed="13.89" length="13.11" shape="-181.63,48.35 -168.52,48.35"/>
    </edge>
    <edge id=":gneJ134_1" function="internal">
        <lane id=":gneJ134_1_0" index="0" speed="13.89" length="15.68" shape="-183.49,52.76 -179.85,51.40 -176.10,49.96 -172.30,48.82 -168.52,48.35"/>
    </edge>
    <edge id=":gneJ134_2" function="internal">
        <lane id=":gneJ134_2_0" index="0" speed="13.89" length="15.65" shape="-181.92,55.96 -178.77,53.60 -175.53,51.12 -172.13,49.15 -168.52,48.35"/>
    </edge>
    <edge id=":gneJ135_0" function="internal">
        <lane id=":gneJ135_0_0" index="0" speed="13.89" length="13.12" shape="-180.51,54.76 -177.25,55.99 -174.34,57.15 -171.37,58.01 -167.97,58.35"/>
    </edge>
    <edge id=":gneJ135_1" function="internal">
        <lane id=":gneJ135_1_0" index="0" speed="13.89" length="13.65" shape="-181.63,58.35 -167.97,58.35"/>
    </edge>
    <edge id=":gneJ135_2" function="internal">
        <lane id=":gneJ135_2_0" index="0" speed="13.89" length="13.63" shape="-181.04,61.94 -177.70,60.71 -174.60,59.55 -171.46,58.69 -167.97,58.35"/>
    </edge>
    <edge id=":gneJ136_0" function="internal">
        <lane id=":gneJ136_0_0" index="0" speed="13.89" length="15.10" shape="-180.46,61.05 -177.38,63.36 -174.30,65.74 -171.06,67.60 -167.52,68.35"/>
    </edge>
    <edge id=":gneJ136_1" function="internal">
        <lane id=":gneJ136_1_0" index="0" speed="13.89" length="15.15" shape="-182.03,64.25 -178.46,65.56 -174.87,66.89 -171.23,67.93 -167.52,68.35"/>
    </edge>
    <edge id=":gneJ136_2" function="internal">
        <lane id=":gneJ136_2_0" index="0" speed="13.89" length="13.58" shape="-181.09,68.35 -167.52,68.35"/>
    </edge>
    <edge id=":gneJ14_0" function="internal">
        <lane id=":gneJ14_0_0" index="0" speed="13.89" length="10.19" shape="-122.27,48.35 -119.34,48.09 -117.43,47.34 -115.62,46.17 -112.99,44.65"/>
    </edge>
    <edge id=":gneJ14_1" function="internal">
        <lane id=":gneJ14_1_0" index="0" speed="13.89" length="10.16" shape="-122.27,48.35 -112.11,48.35"/>
    </edge>
    <edge id=":gneJ141_0" function="internal">
        <lane id=":gneJ141_0_0" index="0" speed="13.89" length="13.58" shape="48.35,311.09 48.35,297.52"/>
    </edge>
    <edge id=":gneJ141_1" function="internal">
        <lane id=":gneJ141_1_0" index="0" speed="13.89" length="15.10" shape="41.05,310.46 43.36,307.38 45.74,304.30 47.60,301.06 48.35,297.52"/>
    </edge>
    <edge id=":gneJ141_2" function="internal">
        <lane id=":gneJ141_2_0" index="0" speed="13.89" length="15.15" shape="44.25,312.03 45.56,308.46 46.89,304.87 47.93,301.23 48.35,297.52"/>
    </edge>
    <edge id=":gneJ142_0" function="internal">
        <lane id=":gneJ142_0_0" index="0" speed="13.89" length="13.65" shape="38.35,311.63 38.35,297.97"/>
    </edge>
    <edge id=":gneJ142_1" function="internal">
        <lane id=":gneJ142_1_0" index="0" speed="13.89" length="13.63" shape="41.94,311.04 40.71,307.70 39.55,304.60 38.69,301.46 38.35,297.97"/>
    </edge>
    <edge id=":gneJ142_2" function="internal">
        <lane id=":gneJ142_2_0" index="0" speed="13.89" length="13.12" shape="34.76,310.51 35.99,307.25 37.15,304.34 38.01,301.37 38.35,297.97"/>
    </edge>
    <edge id=":gneJ143_0" function="internal">
        <lane id=":gneJ143_0_0" index="0" speed="13.89" length="13.11" shape="28.35,311.63 28.35,298.52"/>
    </edge>
    <edge id=":gneJ143_1" function="internal">
        <lane id=":gneJ143_1_0" index="0" speed="13.89" length="15.68" shape="32.76,313.49 31.40,309.85 29.96,306.10 28.82,302.30 28.35,298.52"/>
    </edge>
    <edge id=":gneJ143_2" function="internal">
        <lane id=":gneJ143_2_0" index="0" speed="13.89" length="15.65" shape="35.96,311.92 33.60,308.77 31.12,305.53 29.15,302.13 28.35,298.52"/>
    </edge>
    <edge id=":gneJ145_0" function="internal">
        <lane id=":gneJ145_0_0" index="0" speed="13.89" length="13.11" shape="81.65,-161.63 81.65,-148.52"/>
    </edge>
    <edge id=":gneJ145_1" function="internal">
        <lane id=":gneJ145_1_0" index="0" speed="13.89" length="15.68" shape="77.24,-163.49 78.60,-159.85 80.04,-156.10 81.18,-152.30 81.65,-148.52"/>
    </edge>
    <edge id=":gneJ145_2" function="internal">
        <lane id=":gneJ145_2_0" index="0" speed="13.89" length="15.65" shape="74.04,-161.92 76.40,-158.77 78.88,-155.53 80.85,-152.13 81.65,-148.52"/>
    </edge>
    <edge id=":gneJ146_0" function="internal">
        <lane id=":gneJ146_0_0" index="0" speed="13.89" length="13.12" shape="75.24,-160.51 74.01,-157.25 72.85,-154.34 71.99,-151.37 71.65,-147.97"/>
    </edge>
    <edge id=":gneJ146_1" function="internal">
        <lane id=":gneJ146_1_0" index="0" speed="13.89" length="13.65" shape="71.65,-161.63 71.65,-147.97"/>
    </edge>
    <edge id=":gneJ146_2" function="internal">
        <lane id=":gneJ146_2_0" index="0" speed="13.89" length="13.63" shape="68.06,-161.04 69.29,-157.70 70.45,-154.60 71.31,-151.46 71.65,-147.97"/>
    </edge>
    <edge id=":gneJ147_0" function="internal">
        <lane id=":gneJ147_0_0" index="0" speed="13.89" length="15.10" shape="68.95,-160.46 66.64,-157.38 64.26,-154.30 62.40,-151.06 61.65,-147.52"/>
    </edge>
    <edge id=":gneJ147_1" function="internal">
        <lane id=":gneJ147_1_0" index="0" speed="13.89" length="15.15" shape="65.75,-162.03 64.44,-158.46 63.11,-154.87 62.07,-151.23 61.65,-147.52"/>
    </edge>
    <edge id=":gneJ147_2" function="internal">
        <lane id=":gneJ147_2_0" index="0" speed="13.89" length="13.58" shape="61.65,-161.09 61.65,-147.52"/>
    </edge>
    <edge id=":gneJ15_0" function="internal">
        <lane id=":gneJ15_0_0" index="0" speed="13.89" length="10.19" shape="222.99,44.65 225.62,46.17 227.43,47.34 229.34,48.09 232.27,48.35"/>
    </edge>
    <edge id=":gneJ15_1" function="internal">
        <lane id=":gneJ15_1_0" index="0" speed="13.89" length="10.16" shape="222.11,48.35 232.27,48.35"/>
    </edge>
    <edge id=":gneJ16_0" function="internal">
        <lane id=":gneJ16_0_0" index="0" speed="13.89" length="0.10" shape="-120.00,58.35 -120.00,58.35"/>
    </edge>
    <edge id=":gneJ165_0" function="internal">
        <lane id=":gneJ165_0_0" index="0" speed="13.89" length="0.10" shape="28.35,-100.00 28.35,-100.00"/>
    </edge>
    <edge id=":gneJ17_0" function="internal">
        <lane id=":gneJ17_0_0" index="0" speed="13.89" length="0.10" shape="230.00,58.35 230.00,58.35"/>
    </edge>
    <edge id=":gneJ18_0" function="internal">
        <lane id=":gneJ18_0_0" index="0" speed="13.89" length="0.10" shape="-120.00,68.35 -120.00,68.35"/>
    </edge>
    <edge id=":gneJ19_0" function="internal">
        <lane id=":gneJ19_0_0" index="0" speed="13.89" length="0.10" shape="230.00,68.35 230.00,68.35"/>
    </edge>
    <edge id=":gneJ2_0" function="internal">
        <lane id=":gneJ2_0_0" index="0" speed="13.89" length="0.10" shape="61.65,-100.00 61.65,-100.00"/>
    </edge>
    <edge id=":gneJ20_0" function="internal">
        <lane id=":gneJ20_0_0" index="0" speed="13.89" length="0.10" shape="230.00,81.65 230.00,81.65"/>
    </edge>
    <edge id=":gneJ207_0" function="internal">
        <lane id=":gneJ207_0_0" index="0" speed="13.89" length="0.10" shape="61.65,250.00 61.65,250.00"/>
    </edge>
    <edge id=":gneJ208_0" function="internal">
        <lane id=":gneJ208_0_0" index="0" speed="13.89" length="0.10" shape="48.35,-100.00 48.35,-100.00"/>
    </edge>
    <edge id=":gneJ21_0" function="internal">
        <lane id=":gneJ21_0_0" index="0" speed="13.89" length="0.10" shape="-120.00,81.65 -120.00,81.65"/>
    </edge>
    <edge id=":gneJ22_0" function="internal">
        <lane id=":gneJ22_0_0" index="0" speed="13.89" length="0.10" shape="230.00,91.65 230.00,91.65"/>
    </edge>
    <edge id=":gneJ232_0" function="internal">
        <lane id=":gneJ232_0_0" index="0" speed="13.89" length="0.29" shape="-81.00,28.66 -80.92,28.62 -80.87,28.59 -80.82,28.56 -80.76,28.50"/>
    </edge>
    <edge id=":gneJ233_0" function="internal">
        <lane id=":gneJ233_0_0" index="0" speed="13.89" length="1.04" shape="-40.98,-1.33 -40.73,-1.51 -40.53,-1.60 -40.32,-1.64 -40.02,-1.65"/>
    </edge>
    <edge id=":gneJ234_0" function="internal">
        <lane id=":gneJ234_0_0" index="0" speed="13.89" length="0.13" shape="-70.62,121.54 -70.74,121.48"/>
    </edge>
    <edge id=":gneJ235_0" function="internal">
        <lane id=":gneJ235_0_0" index="0" speed="13.89" length="6.29" shape="-7.77,154.56 -9.05,153.21 -9.94,152.26 -10.94,151.47 -12.55,150.57"/>
    </edge>
    <edge id=":gneJ235_1" function="internal">
        <lane id=":gneJ235_1_0" index="0" speed="13.89" length="1.85" shape="-7.34,150.21 -8.62,150.87 -9.02,150.95"/>
    </edge>
    <edge id=":gneJ235_2" function="internal">
        <lane id=":gneJ235_2_0" index="0" speed="13.89" length="3.64" shape="-9.02,150.95 -9.91,151.15 -11.22,151.05 -12.55,150.57"/>
    </edge>
    <edge id=":gneJ236_0" function="internal">
        <lane id=":gneJ236_0_0" index="0" speed="13.89" length="0.10" shape="190.74,121.48 190.65,121.52"/>
    </edge>
    <edge id=":gneJ238_0" function="internal">
        <lane id=":gneJ238_0_0" index="0" speed="13.89" length="0.29" shape="190.76,28.50 190.82,28.56 190.87,28.59 190.92,28.62 191.00,28.66"/>
    </edge>
    <edge id=":gneJ239_0" function="internal">
        <lane id=":gneJ239_0_0" index="0" speed="13.89" length="1.04" shape="150.02,-1.65 150.32,-1.64 150.53,-1.60 150.73,-1.51 150.98,-1.33"/>
    </edge>
    <edge id=":gneJ24_0" function="internal">
        <lane id=":gneJ24_0_0" index="0" speed="13.89" length="10.19" shape="232.27,101.65 229.34,101.91 227.43,102.66 225.62,103.83 222.99,105.35"/>
    </edge>
    <edge id=":gneJ24_1" function="internal">
        <lane id=":gneJ24_1_0" index="0" speed="13.89" length="10.16" shape="232.27,101.65 222.11,101.65"/>
    </edge>
    <edge id=":gneJ25_0" function="internal">
        <lane id=":gneJ25_0_0" index="0" speed="13.89" length="11.63" shape="-111.21,105.29 -114.17,103.94 -116.53,102.77 -118.96,101.96 -122.13,101.65"/>
    </edge>
    <edge id=":gneJ25_1" function="internal">
        <lane id=":gneJ25_1_0" index="0" speed="13.89" length="11.62" shape="-110.51,101.65 -122.13,101.65"/>
    </edge>
    <edge id=":gneJ252_0" function="internal">
        <lane id=":gneJ252_0_0" index="0" speed="13.89" length="1.58" shape="20.94,18.64 21.25,18.90 21.47,19.21 21.61,19.57 21.65,19.97"/>
    </edge>
    <edge id=":gneJ253_0" function="internal">
        <lane id=":gneJ253_0_0" index="0" speed="13.89" length="1.58" shape="21.65,130.03 21.61,130.43 21.47,130.79 21.25,131.10 20.94,131.36"/>
    </edge>
    <edge id=":gneJ254_0" function="internal">
        <lane id=":gneJ254_0_0" index="0" speed="13.89" length="0.95" shape="31.92,20.10 31.77,20.33 31.69,20.51 31.66,20.70 31.65,20.98"/>
    </edge>
    <edge id=":gneJ255_0" function="internal">
        <lane id=":gneJ255_0_0" index="0" speed="13.89" length="0.95" shape="31.65,129.02 31.66,129.30 31.69,129.49 31.77,129.67 31.92,129.90"/>
    </edge>
    <edge id=":gneJ256_0" function="internal">
        <lane id=":gneJ256_0_0" index="0" speed="13.89" length="0.95" shape="41.92,20.10 41.77,20.33 41.69,20.51 41.66,20.70 41.65,20.98"/>
    </edge>
    <edge id=":gneJ257_0" function="internal">
        <lane id=":gneJ257_0_0" index="0" speed="13.89" length="0.95" shape="41.65,129.02 41.66,129.30 41.69,129.49 41.77,129.67 41.92,129.90"/>
    </edge>
    <edge id=":gneJ258_0" function="internal">
        <lane id=":gneJ258_0_0" index="0" speed="13.89" length="0.95" shape="68.08,129.90 68.23,129.67 68.31,129.49 68.34,129.30 68.35,129.02"/>
    </edge>
    <edge id=":gneJ259_0" function="internal">
        <lane id=":gneJ259_0_0" index="0" speed="13.89" length="0.95" shape="68.35,20.98 68.34,20.70 68.31,20.51 68.23,20.33 68.08,20.10"/>
    </edge>
    <edge id=":gneJ260_0" function="internal">
        <lane id=":gneJ260_0_0" index="0" speed="13.89" length="0.95" shape="78.08,129.90 78.23,129.67 78.31,129.49 78.34,129.30 78.35,129.02"/>
    </edge>
    <edge id=":gneJ261_0" function="internal">
        <lane id=":gneJ261_0_0" index="0" speed="13.89" length="0.95" shape="78.35,20.98 78.34,20.70 78.31,20.51 78.23,20.33 78.08,20.10"/>
    </edge>
    <edge id=":gneJ262_0" function="internal">
        <lane id=":gneJ262_0_0" index="0" speed="13.89" length="1.58" shape="89.06,131.36 88.75,131.10 88.53,130.79 88.39,130.43 88.35,130.03"/>
    </edge>
    <edge id=":gneJ263_0" function="internal">
        <lane id=":gneJ263_0_0" index="0" speed="13.89" length="1.58" shape="88.35,19.97 88.39,19.57 88.53,19.21 88.75,18.90 89.06,18.64"/>
    </edge>
    <edge id=":gneJ264_0" function="internal">
        <lane id=":gneJ264_0_0" index="0" speed="13.89" length="6.13" shape="117.77,-4.56 119.02,-3.24 119.99,-2.33 121.11,-1.81 122.85,-1.65"/>
    </edge>
    <edge id=":gneJ264_1" function="internal">
        <lane id=":gneJ264_1_0" index="0" speed="13.89" length="5.84" shape="117.34,-0.21 118.80,-1.10 119.91,-1.52 121.12,-1.65 122.85,-1.65"/>
    </edge>
    <edge id=":gneJ266_0" function="internal">
        <lane id=":gneJ266_0_0" index="0" speed="13.89" length="1.26" shape="81.65,-41.35 81.68,-41.03 81.77,-40.73 81.91,-40.46 82.12,-40.21"/>
    </edge>
    <edge id=":gneJ268_0" function="internal">
        <lane id=":gneJ268_0_0" index="0" speed="13.89" length="0.52" shape="61.65,-39.99 61.65,-39.84 61.64,-39.73 61.61,-39.63 61.57,-39.49"/>
    </edge>
    <edge id=":gneJ269_0" function="internal">
        <lane id=":gneJ269_0_0" index="0" speed="13.89" length="0.52" shape="71.65,-39.99 71.65,-39.84 71.64,-39.73 71.61,-39.63 71.57,-39.49"/>
    </edge>
    <edge id=":gneJ270_0" function="internal">
        <lane id=":gneJ270_0_0" index="0" speed="13.89" length="5.57" shape="62.16,-3.78 61.08,-5.00 60.00,-5.40 58.92,-5.00 57.84,-3.78"/>
    </edge>
    <edge id=":gneJ270_1" function="internal">
        <lane id=":gneJ270_1_0" index="0" speed="13.89" length="8.18" shape="62.16,-3.78 60.74,-5.75 59.72,-7.09 58.88,-8.52 58.01,-10.76"/>
    </edge>
    <edge id=":gneJ270_2" function="internal">
        <lane id=":gneJ270_2_0" index="0" speed="13.89" length="8.18" shape="61.99,-10.76 61.12,-8.52 60.28,-7.09 59.26,-5.75 57.84,-3.78"/>
    </edge>
    <edge id=":gneJ270_3" function="internal">
        <lane id=":gneJ270_3_0" index="0" speed="13.89" length="2.68" shape="61.99,-10.76 61.00,-8.52 60.82,-8.38"/>
    </edge>
    <edge id=":gneJ270_4" function="internal">
        <lane id=":gneJ270_4_0" index="0" speed="13.89" length="4.72" shape="60.82,-8.38 60.00,-7.77 59.00,-8.52 58.01,-10.76"/>
    </edge>
    <edge id=":gneJ271_0" function="internal">
        <lane id=":gneJ271_0_0" index="0" speed="13.89" length="5.57" shape="52.16,-3.78 51.08,-5.00 50.00,-5.40 48.92,-5.00 47.84,-3.78"/>
    </edge>
    <edge id=":gneJ271_1" function="internal">
        <lane id=":gneJ271_1_0" index="0" speed="13.89" length="8.18" shape="52.16,-3.78 50.74,-5.75 49.72,-7.09 48.88,-8.52 48.01,-10.76"/>
    </edge>
    <edge id=":gneJ271_2" function="internal">
        <lane id=":gneJ271_2_0" index="0" speed="13.89" length="8.18" shape="51.99,-10.76 51.12,-8.52 50.28,-7.09 49.26,-5.75 47.84,-3.78"/>
    </edge>
    <edge id=":gneJ271_3" function="internal">
        <lane id=":gneJ271_3_0" index="0" speed="13.89" length="2.68" shape="51.99,-10.76 51.00,-8.52 50.82,-8.38"/>
    </edge>
    <edge id=":gneJ271_4" function="internal">
        <lane id=":gneJ271_4_0" index="0" speed="13.89" length="4.72" shape="50.82,-8.38 50.00,-7.77 49.00,-8.52 48.01,-10.76"/>
    </edge>
    <edge id=":gneJ272_0" function="internal">
        <lane id=":gneJ272_0_0" index="0" speed="13.89" length="0.52" shape="48.43,-39.49 48.39,-39.63 48.36,-39.73 48.35,-39.84 48.35,-39.99"/>
    </edge>
    <edge id=":gneJ273_0" function="internal">
        <lane id=":gneJ273_0_0" index="0" speed="13.89" length="0.52" shape="38.43,-39.49 38.39,-39.63 38.36,-39.73 38.35,-39.84 38.35,-39.99"/>
    </edge>
    <edge id=":gneJ274_0" function="internal">
        <lane id=":gneJ274_0_0" index="0" speed="13.89" length="1.26" shape="27.88,-40.21 28.09,-40.46 28.23,-40.73 28.32,-41.03 28.35,-41.35"/>
    </edge>
    <edge id=":gneJ275_0" function="internal">
        <lane id=":gneJ275_0_0" index="0" speed="13.89" length="5.98" shape="-12.85,-1.65 -11.72,-1.83 -10.50,-2.38 -9.18,-3.29 -7.77,-4.56"/>
    </edge>
    <edge id=":gneJ275_1" function="internal">
        <lane id=":gneJ275_1_0" index="0" speed="13.89" length="5.84" shape="-12.85,-1.65 -11.12,-1.65 -9.91,-1.52 -8.80,-1.10 -7.34,-0.21"/>
    </edge>
    <edge id=":gneJ276_0" function="internal">
        <lane id=":gneJ276_0_0" index="0" speed="13.89" length="7.40" shape="61.99,171.19 61.00,168.95 60.00,168.21 59.00,168.95 58.01,171.19"/>
    </edge>
    <edge id=":gneJ276_1" function="internal">
        <lane id=":gneJ276_1_0" index="0" speed="13.89" length="14.65" shape="61.99,171.19 60.57,165.82 60.13,161.12 60.66,157.11 60.79,156.81"/>
    </edge>
    <edge id=":gneJ276_4" function="internal">
        <lane id=":gneJ276_4_0" index="0" speed="13.89" length="3.33" shape="60.79,156.81 62.16,153.78"/>
    </edge>
    <edge id=":gneJ276_2" function="internal">
        <lane id=":gneJ276_2_0" index="0" speed="13.89" length="5.57" shape="57.84,153.78 58.92,155.00 60.00,155.40 61.08,155.00 62.16,153.78"/>
    </edge>
    <edge id=":gneJ276_3" function="internal">
        <lane id=":gneJ276_3_0" index="0" speed="13.89" length="13.47" shape="57.84,153.78 59.34,157.11 59.87,161.12 59.43,165.82 59.16,166.84"/>
    </edge>
    <edge id=":gneJ276_5" function="internal">
        <lane id=":gneJ276_5_0" index="0" speed="13.89" length="4.51" shape="59.16,166.84 58.01,171.19"/>
    </edge>
    <edge id=":gneJ277_0" function="internal">
        <lane id=":gneJ277_0_0" index="0" speed="13.89" length="7.40" shape="51.99,171.19 51.00,168.95 50.00,168.21 49.00,168.95 48.01,171.19"/>
    </edge>
    <edge id=":gneJ277_1" function="internal">
        <lane id=":gneJ277_1_0" index="0" speed="13.89" length="14.65" shape="51.99,171.19 50.57,165.82 50.13,161.12 50.66,157.11 50.79,156.81"/>
    </edge>
    <edge id=":gneJ277_4" function="internal">
        <lane id=":gneJ277_4_0" index="0" speed="13.89" length="3.33" shape="50.79,156.81 52.16,153.78"/>
    </edge>
    <edge id=":gneJ277_2" function="internal">
        <lane id=":gneJ277_2_0" index="0" speed="13.89" length="5.57" shape="47.84,153.78 48.92,155.00 50.00,155.40 51.08,155.00 52.16,153.78"/>
    </edge>
    <edge id=":gneJ277_3" function="internal">
        <lane id=":gneJ277_3_0" index="0" speed="13.89" length="13.47" shape="47.84,153.78 49.34,157.11 49.87,161.12 49.43,165.82 49.16,166.84"/>
    </edge>
    <edge id=":gneJ277_5" function="internal">
        <lane id=":gneJ277_5_0" index="0" speed="13.89" length="4.51" shape="49.16,166.84 48.01,171.19"/>
    </edge>
    <edge id=":gneJ282_0" function="internal">
        <lane id=":gneJ282_0_0" index="0" speed="13.89" length="1.26" shape="28.35,191.35 28.32,191.03 28.23,190.73 28.09,190.46 27.88,190.21"/>
    </edge>
    <edge id=":gneJ283_0" function="internal">
        <lane id=":gneJ283_0_0" index="0" speed="13.89" length="6.28" shape="122.60,150.68 120.95,151.49 119.94,152.26 119.05,153.20 117.77,154.56"/>
    </edge>
    <edge id=":gneJ283_1" function="internal">
        <lane id=":gneJ283_1_0" index="0" speed="13.89" length="5.52" shape="122.60,150.68 121.23,151.10 119.90,151.16 118.60,150.86 117.34,150.21"/>
    </edge>
    <edge id=":gneJ284_0" function="internal">
        <lane id=":gneJ284_0_0" index="0" speed="13.89" length="1.26" shape="82.12,190.21 81.91,190.46 81.77,190.73 81.68,191.03 81.65,191.35"/>
    </edge>
    <edge id=":gneJ38_0" function="internal">
        <lane id=":gneJ38_0_0" index="0" speed="13.89" length="13.11" shape="768.52,48.35 781.63,48.35"/>
    </edge>
    <edge id=":gneJ38_1" function="internal">
        <lane id=":gneJ38_1_0" index="0" speed="13.89" length="15.68" shape="768.52,48.35 772.30,48.82 776.10,49.96 779.85,51.40 783.49,52.76"/>
    </edge>
    <edge id=":gneJ38_2" function="internal">
        <lane id=":gneJ38_2_0" index="0" speed="13.89" length="15.65" shape="768.52,48.35 772.13,49.15 775.53,51.12 778.77,53.60 781.92,55.96"/>
    </edge>
    <edge id=":gneJ39_0" function="internal">
        <lane id=":gneJ39_0_0" index="0" speed="13.89" length="13.12" shape="767.97,58.35 771.37,58.01 774.34,57.15 777.25,55.99 780.51,54.76"/>
    </edge>
    <edge id=":gneJ39_1" function="internal">
        <lane id=":gneJ39_1_0" index="0" speed="13.89" length="13.12" shape="767.97,58.35 781.09,58.35"/>
    </edge>
    <edge id=":gneJ4_0" function="internal">
        <lane id=":gneJ4_0_0" index="0" speed="13.89" length="0.10" shape="71.65,-100.00 71.65,-100.00"/>
    </edge>
    <edge id=":gneJ40_0" function="internal">
        <lane id=":gneJ40_0_0" index="0" speed="13.89" length="15.10" shape="767.52,68.35 771.06,67.60 774.30,65.74 777.38,63.36 780.46,61.05"/>
    </edge>
    <edge id=":gneJ40_1" function="internal">
        <lane id=":gneJ40_1_0" index="0" speed="13.89" length="15.15" shape="767.52,68.35 771.23,67.93 774.87,66.89 778.46,65.56 782.03,64.25"/>
    </edge>
    <edge id=":gneJ40_2" function="internal">
        <lane id=":gneJ40_2_0" index="0" speed="13.89" length="13.58" shape="767.52,68.35 781.09,68.35"/>
    </edge>
    <edge id=":gneJ44_0" function="internal">
        <lane id=":gneJ44_0_0" index="0" speed="13.89" length="13.11" shape="-588.52,101.65 -601.63,101.65"/>
    </edge>
    <edge id=":gneJ44_1" function="internal">
        <lane id=":gneJ44_1_0" index="0" speed="13.89" length="15.68" shape="-588.52,101.65 -592.30,101.18 -596.10,100.04 -599.85,98.60 -603.49,97.24"/>
    </edge>
    <edge id=":gneJ44_2" function="internal">
        <lane id=":gneJ44_2_0" index="0" speed="13.89" length="15.65" shape="-588.52,101.65 -592.13,100.85 -595.53,98.88 -598.77,96.40 -601.92,94.04"/>
    </edge>
    <edge id=":gneJ45_0" function="internal">
        <lane id=":gneJ45_0_0" index="0" speed="13.89" length="0.10" shape="-120.00,91.65 -120.00,91.65"/>
    </edge>
    <edge id=":gneJ46_0" function="internal">
        <lane id=":gneJ46_0_0" index="0" speed="13.89" length="12.62" shape="-588.51,91.65 -591.83,91.99 -594.60,92.85 -597.34,94.01 -600.51,95.24"/>
    </edge>
    <edge id=":gneJ46_1" function="internal">
        <lane id=":gneJ46_1_0" index="0" speed="13.89" length="13.12" shape="-588.51,91.65 -601.63,91.65"/>
    </edge>
    <edge id=":gneJ46_2" function="internal">
        <lane id=":gneJ46_2_0" index="0" speed="13.89" length="13.12" shape="-588.51,91.65 -591.91,91.31 -594.87,90.45 -597.79,89.29 -601.04,88.06"/>
    </edge>
    <edge id=":gneJ47_0" function="internal">
        <lane id=":gneJ47_0_0" index="0" speed="13.89" length="15.10" shape="-587.52,81.65 -591.06,82.40 -594.30,84.26 -597.38,86.64 -600.46,88.95"/>
    </edge>
    <edge id=":gneJ47_1" function="internal">
        <lane id=":gneJ47_1_0" index="0" speed="13.89" length="15.15" shape="-587.52,81.65 -591.23,82.07 -594.87,83.11 -598.46,84.44 -602.03,85.75"/>
    </edge>
    <edge id=":gneJ47_2" function="internal">
        <lane id=":gneJ47_2_0" index="0" speed="13.89" length="13.58" shape="-587.52,81.65 -601.09,81.65"/>
    </edge>
    <edge id=":gneJ5_0" function="internal">
        <lane id=":gneJ5_0_0" index="0" speed="13.89" length="0.10" shape="71.65,250.00 71.65,250.00"/>
    </edge>
    <edge id=":gneJ52_0" function="internal">
        <lane id=":gneJ52_0_0" index="0" speed="13.89" length="15.10" shape="-202.48,68.35 -198.94,67.60 -195.70,65.74 -192.62,63.36 -189.54,61.05"/>
    </edge>
    <edge id=":gneJ52_1" function="internal">
        <lane id=":gneJ52_1_0" index="0" speed="13.89" length="15.15" shape="-202.48,68.35 -198.77,67.93 -195.13,66.89 -191.54,65.56 -187.97,64.25"/>
    </edge>
    <edge id=":gneJ52_2" function="internal">
        <lane id=":gneJ52_2_0" index="0" speed="13.89" length="13.58" shape="-202.48,68.35 -188.91,68.35"/>
    </edge>
    <edge id=":gneJ54_0" function="internal">
        <lane id=":gneJ54_0_0" index="0" speed="13.89" length="12.62" shape="-201.49,58.35 -198.17,58.01 -195.40,57.15 -192.66,55.99 -189.49,54.76"/>
    </edge>
    <edge id=":gneJ54_1" function="internal">
        <lane id=":gneJ54_1_0" index="0" speed="13.89" length="13.12" shape="-201.49,58.35 -188.37,58.35"/>
    </edge>
    <edge id=":gneJ54_2" function="internal">
        <lane id=":gneJ54_2_0" index="0" speed="13.89" length="13.12" shape="-201.49,58.35 -198.09,58.69 -195.13,59.55 -192.21,60.71 -188.96,61.94"/>
    </edge>
    <edge id=":gneJ56_0" function="internal">
        <lane id=":gneJ56_0_0" index="0" speed="13.89" length="13.11" shape="-201.48,48.35 -188.37,48.35"/>
    </edge>
    <edge id=":gneJ56_1" function="internal">
        <lane id=":gneJ56_1_0" index="0" speed="13.89" length="15.68" shape="-201.48,48.35 -197.70,48.82 -193.90,49.96 -190.15,51.40 -186.51,52.76"/>
    </edge>
    <edge id=":gneJ56_2" function="internal">
        <lane id=":gneJ56_2_0" index="0" speed="13.89" length="15.65" shape="-201.48,48.35 -197.87,49.15 -194.47,51.12 -191.23,53.60 -188.08,55.96"/>
    </edge>
    <edge id=":gneJ58_0" function="internal">
        <lane id=":gneJ58_0_0" index="0" speed="13.89" length="15.10" shape="312.48,81.65 308.94,82.40 305.70,84.26 302.62,86.64 299.54,88.95"/>
    </edge>
    <edge id=":gneJ58_1" function="internal">
        <lane id=":gneJ58_1_0" index="0" speed="13.89" length="15.15" shape="312.48,81.65 308.77,82.07 305.13,83.11 301.54,84.44 297.97,85.75"/>
    </edge>
    <edge id=":gneJ58_2" function="internal">
        <lane id=":gneJ58_2_0" index="0" speed="13.89" length="13.58" shape="312.48,81.65 298.91,81.65"/>
    </edge>
    <edge id=":gneJ6_0" function="internal">
        <lane id=":gneJ6_0_0" index="0" speed="13.89" length="0.10" shape="81.65,-100.00 81.65,-100.00"/>
    </edge>
    <edge id=":gneJ60_0" function="internal">