<?xml version="1.0" encoding="UTF-8"?>

<!-- generated on 16/05/2018 16:51:06 by Netedit Version 0.32.0
<?xml version="1.0" encoding="UTF-8"?>

<configuration xmlns:xsi="http://www.w3.org/2001/XMLSchema-instance" xsi:noNamespaceSchemaLocation="http://sumo.dlr.de/xsd/netconvertConfiguration.xsd">

    <input>
        <sumo-net-file value="C:\Users\Abel\Documents\School\Year%202\Project%202-2\MapXmls\MaasRoadOnly\MaasRoadOnly.net.xml"/>
    </input>

    <output>
        <output-file value="C:\Users\Abel\Documents\School\Year%202\Project%202-2\MapXmls\MaasRoadOnly\MaasRoadOnly.net.xml"/>
        <plain-output-prefix value="C:\Users\Abel\Documents\School\Year%202\Project%202-2\MapXmls\MaasRoadOnly\Maas"/>
    </output>

    <processing>
        <no-turnarounds value="true"/>
        <offset.disable-normalization value="true"/>
        <lefthand value="false"/>
        <junctions.corner-detail value="0"/>
        <rectangular-lane-cut value="false"/>
        <walkingareas value="false"/>
    </processing>

</configuration>
-->

<edges version="0.27" xmlns:xsi="http://www.w3.org/2001/XMLSchema-instance" xsi:noNamespaceSchemaLocation="http://sumo.dlr.de/xsd/edges_file.xsd">
    <edge id="-105358190" from="41975100" to="611797446" priority="6" type="highway.tertiary" numLanes="1" speed="13.89" shape="2485.57,1390.01 2495.56,1356.75 2497.62,1345.72 2498.69,1332.49" disallow="tram rail_urban rail rail_electric ship"/>
    <edge id="-105358233" from="611797446" to="41973031" priority="6" type="highway.tertiary" numLanes="1" speed="13.89" shape="2498.69,1332.49 2500.20,1303.25 2500.55,1261.01 2503.07,1203.32" disallow="tram rail_urban rail rail_electric ship"/>
    <edge id="-106614342" from="294793577" to="41970418" priority="5" type="highway.unclassified" numLanes="1" speed="13.89" disallow="tram rail_urban rail rail_electric ship"/>
    <edge id="-106614343" from="2835661856" to="294793577" priority="5" type="highway.unclassified" numLanes="1" speed="13.89" shape="1984.39,959.67 1982.62,959.85 1980.48,960.15" disallow="tram rail_urban rail rail_electric ship"/>
    <edge id="-109889825" from="1256908096" to="1256908098" priority="4" type="highway.residential" numLanes="1" speed="8.33" disallow="tram rail_urban rail rail_electric ship"/>
    <edge id="-112313134" from="582846651" to="41963593" priority="5" type="highway.unclassified" numLanes="1" speed="8.33" disallow="tram rail_urban rail rail_electric ship"/>
    <edge id="-112999350#0" from="41966030" to="567496783" priority="5" type="highway.unclassified" numLanes="1" speed="8.33" shape="2361.94,594.02 2345.25,550.52 2336.62,527.48" disallow="tram rail_urban rail rail_electric ship"/>
    <edge id="-112999350#1" from="41967180" to="41966030" priority="5" type="highway.unclassified" numLanes="1" speed="8.33" disallow="tram rail_urban rail rail_electric ship"/>
    <edge id="-112999350#2" from="41967712" to="41967180" priority="5" type="highway.unclassified" numLanes="1" speed="8.33" disallow="tram rail_urban rail rail_electric ship"/>
    <edge id="-112999350#3" from="494000484" to="41967712" priority="5" type="highway.unclassified" numLanes="1" speed="8.33" shape="2419.08,747.16 2417.86,744.42 2412.25,729.46 2411.05,726.26" disallow="tram rail_urban rail rail_electric ship"/>
    <edge id="-112999354#0" from="41968099" to="494000484" priority="5" type="highway.unclassified" numLanes="1" speed="8.33" shape="2435.76,793.68 2427.80,770.19 2419.08,747.16" disallow="tram rail_urban rail rail_electric ship"/>
    <edge id="-112999354#1" from="41968849" to="41968099" priority="5" type="highway.unclassified" numLanes="1" speed="8.33" disallow="tram rail_urban rail rail_electric ship"/>
    <edge id="-112999354#2" from="41969400" to="41968849" priority="5" type="highway.unclassified" numLanes="1" speed="8.33" shape="2446.93,891.12 2451.71,877.00 2454.31,864.42 2455.91,849.81" disallow="tram rail_urban rail rail_electric ship"/>
    <edge id="-113010357#0" from="41977758" to="1283012126" priority="4" type="highway.residential" numLanes="1" speed="13.89" disallow="tram rail_urban rail rail_electric ship"/>
    <edge id="-113010357#1" from="41978379" to="41977758" priority="4" type="highway.residential" numLanes="1" speed="13.89" disallow="tram rail_urban rail rail_electric ship"/>
    <edge id="-113010358" from="41976167" to="1283012126" priority="5" type="highway.unclassified" numLanes="1" speed="13.89" shape="2047.97,1460.02 2044.42,1460.70 2030.32,1469.57 2014.60,1479.32 1996.39,1489.53 1980.95,1497.46 1979.83,1499.42 1979.75,1501.55" disallow="tram rail_urban rail rail_electric ship"/>
    <edge id="-116121397" from="41990334" to="41990858" priority="5" type="highway.unclassified" numLanes="1" speed="13.89" shape="813.06,2408.02 775.50,2439.28 774.14,2439.72" disallow="tram rail_urban rail rail_electric ship"/>
    <edge id="-131357942" from="41973372" to="294900556" priority="4" type="highway.residential" numLanes="1" speed="13.89" disallow="tram rail_urban rail rail_electric ship"/>
    <edge id="-134440571#0" from="5307207332" to="41986226" priority="5" type="highway.unclassified" numLanes="1" speed="8.33" disallow="tram rail_urban rail rail_electric ship"/>
    <edge id="-134440571#1" from="5296324539" to="5307207332" priority="5" type="highway.unclassified" numLanes="1" speed="8.33" disallow="tram rail_urban rail rail_electric ship"/>
    <edge id="-135737262" from="41965556" to="1256687064" priority="5" type="highway.unclassified" numLanes="1" speed="13.89" disallow="tram rail_urban rail rail_electric ship"/>
    <edge id="-139513058" from="2437332558" to="41986713" priority="5" type="highway.unclassified" numLanes="1" speed="13.89" disallow="tram rail_urban rail rail_electric ship"/>
    <edge id="-139513071" from="41988237" to="41987372" priority="5" type="highway.unclassified" numLanes="1" speed="13.89" shape="1193.07,2277.19 1179.93,2264.28 1163.76,2245.12 1160.74,2240.61 1158.86,2235.54 1157.86,2229.24" disallow="tram rail_urban rail rail_electric ship"/>
    <edge id="-144011480#0" from="41969694" to="41968631" priority="5" type="highway.unclassified" numLanes="1" speed="13.89" shape="2586.00,916.59 2640.00,878.46 2684.05,851.46 2703.54,840.08" disallow="tram rail_urban rail rail_electric ship"/>
    <edge id="-144011480#1" from="41970039" to="41969694" priority="5" type="highway.unclassified" numLanes="1" speed="13.89" shape="2551.91,941.36 2555.74,940.07 2561.15,937.40 2586.00,916.59" disallow="tram rail_urban rail rail_electric ship"/>
    <edge id="-144011482" from="41985184" to="41983198" priority="6" type="highway.tertiary" numLanes="1" speed="13.89" disallow="tram rail_urban rail rail_electric ship"/>
    <edge id="-144011484#0" from="41978117" to="41977030" priority="6" type="highway.tertiary" numLanes="1" speed="13.89" shape="2414.59,1593.35 2434.78,1536.32 2437.16,1529.65" disallow="tram rail_urban rail rail_electric ship"/>
    <edge id="-144011484#1" from="41979856" to="41978117" priority="6" type="highway.tertiary" numLanes="1" speed="13.89" shape="2377.14,1702.98 2397.93,1640.47 2414.59,1593.35" disallow="tram rail_urban rail rail_electric ship"/>
    <edge id="-144011485" from="41982156" to="41982541" priority="5" type="highway.unclassified" numLanes="1" speed="13.89" shape="2533.20,1867.44 2527.33,1883.06 2528.16,1889.31" disallow="tram rail_urban rail rail_electric ship"/>
    <edge id="-144011490" from="4923833092" to="41977968" priority="5" type="highway.unclassified" numLanes="1" speed="13.89" shape="2744.51,1595.78 2722.52,1594.48 2663.45,1593.39" disallow="tram rail_urban rail rail_electric ship"/>
    <edge id="-144552860" from="41977055" to="41980407" priority="7" type="highway.secondary" numLanes="2" speed="13.89" shape="1858.29,1513.82 1887.91,1609.94 1903.06,1669.63 1910.41,1704.62 1913.42,1718.96" disallow="tram rail_urban rail rail_electric ship"/>
    <edge id="-144554882#0" from="41966369" to="41965319" priority="4" type="highway.residential" numLanes="1" speed="8.33" shape="2760.82,636.21 2791.54,615.74 2827.71,590.35 2836.46,583.47 2857.47,566.95 2862.40,562.97 2876.97,551.19 2890.91,539.23" disallow="tram rail_urban rail rail_electric ship"/>
    <edge id="-144554882#1" from="41967122" to="41966369" priority="4" type="highway.residential" numLanes="1" speed="8.33" shape="2665.34,693.49 2691.94,675.31 2760.82,636.21" disallow="tram rail_urban rail rail_electric ship"/>
    <edge id="-144554882#2" from="41967716" to="41967122" priority="4" type="highway.residential" numLanes="1" speed="8.33" shape="2564.40,738.72 2588.98,743.89 2593.01,743.55 2597.44,741.38 2665.34,693.49" disallow="tram rail_urban rail rail_electric ship"/>
    <edge id="-144554886" from="41963978" to="41964006" priority="4" type="highway.residential" numLanes="1" speed="8.33" shape="2745.57,438.10 2742.44,437.19 2734.44,436.02 2713.59,436.21 2644.31,436.85" disallow="tram rail_urban rail rail_electric ship"/>
    <edge id="-146484794" from="1597718509" to="1597718499" priority="5" type="highway.unclassified" numLanes="1" speed="13.89" shape="2515.08,1076.43 2514.84,1088.21 2509.72,1203.18" disallow="tram rail_urban rail rail_electric ship"/>
    <edge id="-161345568" from="295066861" to="41977809" priority="7" type="highway.secondary" numLanes="2" speed="13.89" shape="1568.49,1695.13 1570.11,1655.26 1572.29,1608.23" disallow="tram rail_urban rail rail_electric ship"/>
    <edge id="-163197741#0" from="41988797" to="1529320468" priority="7" type="highway.secondary" numLanes="2" speed="13.89" disallow="tram rail_urban rail rail_electric ship"/>
    <edge id="-163197741#1" from="1013679429" to="41988797" priority="7" type="highway.secondary" numLanes="2" speed="13.89" disallow="tram rail_urban rail rail_electric ship"/>
    <edge id="-177687070" from="3512428674" to="41966620" priority="9" type="highway.primary" numLanes="2" speed="13.89" disallow="tram rail_urban rail rail_electric ship"/>
    <edge id="-177687071" from="5335187809" to="41965884" priority="9" type="highway.primary" numLanes="2" speed="13.89" shape="395.75,522.21 364.93,509.80 354.85,505.83" disallow="tram rail_urban rail rail_electric ship"/>
    <edge id="-182581571" from="60686039" to="41977027" priority="7" type="highway.secondary" numLanes="2" speed="13.89" disallow="tram rail_urban rail rail_electric ship"/>
    <edge id="-185518329" from="2607792449" to="567068761" priority="5" type="highway.unclassified" numLanes="1" speed="8.33" disallow="tram rail_urban rail rail_electric ship"/>
    <edge id="-187074691" from="616727195" to="1978314968" priority="5" type="highway.unclassified" numLanes="1" speed="8.33" shape="1578.16,1526.64 1573.24,1583.57 1572.14,1596.28" disallow="tram rail_urban rail rail_electric ship"/>
    <edge id="-203372279" from="41981444" to="715825731" priority="4" type="highway.residential" numLanes="1" speed="8.33" disallow="tram rail_urban rail rail_electric ship"/>
    <edge id="-205327339" from="41969503" to="41969400" priority="6" type="highway.tertiary" numLanes="1" speed="8.33" disallow="tram rail_urban rail rail_electric ship"/>
    <edge id="-205327346" from="41970778" to="41970925" priority="5" type="highway.unclassified" numLanes="1" speed="13.89" disallow="tram rail_urban rail rail_electric ship"/>
    <edge id="-210044477" from="41967261" to="41967115" priority="5" type="highway.unclassified" numLanes="1" speed="13.89" disallow="tram rail_urban rail rail_electric ship"/>
    <edge id="-210389056" from="41975649" to="297507918" priority="7" type="highway.secondary" numLanes="2" speed="13.89" disallow="tram rail_urban rail rail_electric ship"/>
    <edge id="-214164533" from="41967412" to="5002887686" priority="4" type="highway.residential" numLanes="1" speed="8.33" shape="545.08,634.70 545.03,622.84 546.56,606.41 548.50,596.37" disallow="tram rail_urban rail rail_electric ship"/>
    <edge id="-214330823" from="863194291" to="2238941129" priority="7" type="highway.secondary" numLanes="2" speed="13.89" disallow="tram rail_urban rail rail_electric ship"/>
    <edge id="-214330828" from="963013130" to="41986714" priority="5" type="highway.unclassified" numLanes="1" speed="13.89" shape="1389.19,2230.40 1399.55,2210.80 1410.12,2176.18 1411.68,2162.48" disallow="tram rail_urban rail rail_electric ship"/>
    <edge id="-216493865" from="1529320454" to="715806675" priority="7" type="highway.secondary" numLanes="2" speed="13.89" disallow="tram rail_urban rail rail_electric ship"/>
    <edge id="-216493866" from="41984178" to="1955174609" priority="7" type="highway.secondary" numLanes="2" speed="13.89" shape="1422.68,1955.82 1432.81,1955.38 1477.09,1954.59 1488.35,1953.79 1496.89,1952.32 1504.47,1949.63" disallow="tram rail_urban rail rail_electric ship"/>
    <edge id="-219292817#0" from="41979360" to="41979204" priority="5" type="highway.unclassified" numLanes="1" speed="13.89" disallow="tram rail_urban rail rail_electric ship"/>
    <edge id="-219292817#1" from="41979695" to="41979360" priority="5" type="highway.unclassified" numLanes="1" speed="13.89" disallow="tram rail_urban rail rail_electric ship"/>
    <edge id="-219292817#2" from="41979856" to="41979695" priority="5" type="highway.unclassified" numLanes="1" speed="13.89" shape="2377.14,1702.98 2394.83,1708.87 2402.57,1709.16 2473.99,1692.45" disallow="tram rail_urban rail rail_electric ship"/>
    <edge id="-219294649" from="41978397" to="2284696708" priority="3" type="highway.living_street" numLanes="1" speed="2.78" shape="2503.17,1607.78 2498.61,1621.82 2476.39,1614.60" disallow="tram rail_urban rail rail_electric ship"/>
    <edge id="-225717287" from="41971316" to="41971218" priority="5" type="highway.unclassified" numLanes="1" speed="13.89" disallow="tram rail_urban rail rail_electric ship"/>
    <edge id="-232314009" from="41973593" to="41973674" priority="5" type="highway.unclassified" numLanes="1" speed="13.89" disallow="tram rail_urban rail rail_electric ship"/>
    <edge id="-232314010" from="41973531" to="590223299" priority="5" type="highway.unclassified" numLanes="1" speed="13.89" disallow="tram rail_urban rail rail_electric ship"/>
    <edge id="-235657119#0" from="41986714" to="2437332558" priority="5" type="highway.unclassified" numLanes="1" speed="13.89" disallow="tram rail_urban rail rail_electric ship"/>
    <edge id="-235657119#1" from="491026132" to="41986714" priority="5" type="highway.unclassified" numLanes="1" speed="13.89" disallow="tram rail_urban rail rail_electric ship"/>
    <edge id="-26803647#0" from="3542013579" to="41971178" priority="5" type="highway.unclassified" numLanes="1" speed="13.89" disallow="tram rail_urban rail rail_electric ship"/>
    <edge id="-26803647#1" from="3542013577" to="3542013579" priority="5" type="highway.unclassified" numLanes="1" speed="13.89" disallow="tram rail_urban rail rail_electric ship"/>
    <edge id="-26840215" from="294775780" to="41967672" priority="5" type="highway.unclassified" numLanes="1" speed="13.89" shape="1086.65,643.70 1092.35,643.04 1097.24,645.45 1100.21,647.82 1106.19,653.61 1111.66,661.62 1112.65,667.69 1120.26,679.55" disallow="tram rail_urban rail rail_electric ship"/>
    <edge id="-26844326" from="41976358" to="41976707" priority="5" type="highway.unclassified" numLanes="1" speed="13.89" shape="1963.76,1473.40 1961.34,1476.83 1938.74,1485.76 1910.57,1492.40 1894.04,1495.80 1881.59,1498.33 1872.60,1474.82 1865.84,1476.88" disallow="tram rail_urban rail rail_electric ship"/>
    <edge id="-26844444" from="294859970" to="293924950" priority="5" type="highway.unclassified" numLanes="1" speed="13.89" shape="2011.77,2248.09 2007.46,2307.52 2005.67,2341.43 2003.13,2368.15 2004.46,2375.49 2008.70,2383.10" disallow="tram rail_urban rail rail_electric ship"/>
    <edge id="-26922995" from="295005296" to="41971927" priority="5" type="highway.unclassified" numLanes="1" speed="13.89" disallow="tram rail_urban rail rail_electric ship"/>
    <edge id="-26925156" from="715764547" to="295029023" priority="5" type="highway.unclassified" numLanes="1" speed="13.89" shape="1399.08,1826.33 1396.22,1826.84 1336.60,1837.16 1327.48,1838.62 1317.48,1843.24 1293.86,1845.88 1286.99,1845.63" disallow="tram rail_urban rail rail_electric ship"/>
    <edge id="-26928434" from="295067310" to="295067218" priority="5" type="highway.unclassified" numLanes="1" speed="13.89" disallow="tram rail_urban rail rail_electric ship"/>
    <edge id="-26936653" from="41972097" to="295160110" priority="5" type="highway.unclassified" numLanes="1" speed="8.33" shape="1664.87,1085.17 1666.00,1079.85 1667.59,1065.78" disallow="tram rail_urban rail rail_electric ship"/>
    <edge id="-26942352" from="295208244" to="295208233" priority="5" type="highway.unclassified" numLanes="1" speed="13.89" disallow="tram rail_urban rail rail_electric ship"/>
    <edge id="-26942785#0" from="41969963" to="295211009" priority="4" type="highway.residential" numLanes="1" speed="8.33" shape="990.93,882.02 998.65,868.34 1004.76,861.69" disallow="tram rail_urban rail rail_electric ship"/>
    <edge id="-26942785#1" from="41969738" to="41969963" priority="4" type="highway.residential" numLanes="1" speed="8.33" shape="942.16,859.86 984.26,879.52 990.93,882.02" disallow="tram rail_urban rail rail_electric ship"/>
    <edge id="-26953959" from="294792090" to="41970914" priority="5" type="highway.unclassified" numLanes="1" speed="13.89" shape="2114.46,954.40 2141.08,951.35 2157.76,949.73 2161.18,952.74 2163.67,959.54 2164.85,972.38 2161.82,1009.01" disallow="tram rail_urban rail rail_electric ship"/>
    <edge id="-26954088" from="2406748812" to="41971227" priority="6" type="highway.tertiary" numLanes="1" speed="13.89" disallow="tram rail_urban rail rail_electric ship"/>
    <edge id="-26978544" from="60686039" to="41977055" priority="7" type="highway.secondary" numLanes="2" speed="13.89" disallow="tram rail_urban rail rail_electric ship"/>
    <edge id="-26980274" from="598308232" to="41976566" priority="5" type="highway.unclassified" numLanes="1" speed="13.89" disallow="tram rail_urban rail rail_electric ship"/>
    <edge id="-26980275#0" from="598308228" to="41975371" priority="4" type="highway.residential" numLanes="1" speed="13.89" disallow="tram rail_urban rail rail_electric ship"/>
    <edge id="-26980275#1" from="2819393673" to="598308228" priority="4" type="highway.residential" numLanes="1" speed="13.89" shape="518.22,1407.32 494.90,1380.27 493.15,1373.73 496.43,1367.39 526.52,1341.39" disallow="tram rail_urban rail rail_electric ship"/>
    <edge id="-26992506" from="41973675" to="41973899" priority="5" type="highway.unclassified" numLanes="1" speed="8.33" disallow="tram rail_urban rail rail_electric ship"/>
    <edge id="-26998552" from="41983976" to="41983818" priority="7" type="highway.secondary" numLanes="2" speed="13.89" disallow="tram rail_urban rail rail_electric ship"/>
    <edge id="-26998557" from="1955174609" to="41983976" priority="7" type="highway.secondary" numLanes="2" speed="13.89" shape="1504.47,1949.63 1509.47,1947.01 1513.99,1944.10 1517.11,1941.01" disallow="tram rail_urban rail rail_electric ship"/>
    <edge id="-27118018" from="41972806" to="41972057" priority="5" type="highway.unclassified" numLanes="1" speed="13.89" shape="1628.77,1149.05 1636.20,1117.37 1642.06,1083.17" disallow="tram rail_urban rail rail_electric ship"/>
    <edge id="-27118035" from="41972097" to="41972057" priority="5" type="highway.unclassified" numLanes="1" speed="13.89" disallow="tram rail_urban rail rail_electric ship"/>
    <edge id="-27140778" from="3276809841" to="295929074" priority="5" type="highway.unclassified" numLanes="1" speed="13.89" shape="2123.93,266.18 2119.20,367.06 2113.98,423.37" disallow="tram rail_urban rail rail_electric ship"/>
    <edge id="-27197387" from="41978160" to="298458822" priority="4" type="highway.residential" numLanes="1" speed="8.33" shape="1232.58,1551.62 1250.61,1443.02 1256.47,1416.39 1258.72,1406.46" disallow="tram rail_urban rail rail_electric ship"/>
    <edge id="-272834095" from="4567240453" to="713833731" priority="4" type="highway.residential" numLanes="1" speed="8.33" disallow="tram rail_urban rail rail_electric ship"/>
    <edge id="-276481953" from="41984200" to="2810749404" priority="5" type="highway.unclassified" numLanes="1" speed="13.89" disallow="tram rail_urban rail rail_electric ship"/>
    <edge id="-276481955" from="2810749404" to="2810467954" priority="5" type="highway.unclassified" numLanes="1" speed="13.89" disallow="tram rail_urban rail rail_electric ship"/>
    <edge id="-276481958" from="2810749405" to="41982444" priority="5" type="highway.unclassified" numLanes="1" speed="13.89" disallow="tram rail_urban rail rail_electric ship"/>
    <edge id="-276481961" from="2339199840" to="2810749405" priority="5" type="highway.unclassified" numLanes="1" speed="13.89" disallow="tram rail_urban rail rail_electric ship"/>
    <edge id="-276517378" from="2811155879" to="2811155878" priority="5" type="highway.unclassified" numLanes="1" speed="13.89" disallow="tram rail_urban rail rail_electric ship"/>
    <edge id="-276517379#0" from="41982944" to="2811155879" priority="5" type="highway.unclassified" numLanes="1" speed="13.89" disallow="tram rail_urban rail rail_electric ship"/>
    <edge id="-276517379#1" from="41983198" to="41982944" priority="5" type="highway.unclassified" numLanes="1" speed="13.89" disallow="tram rail_urban rail rail_electric ship"/>
    <edge id="-277644880" from="715764548" to="715764547" priority="5" type="highway.unclassified" numLanes="1" speed="13.89" disallow="tram rail_urban rail rail_electric ship"/>
    <edge id="-277649147" from="2821299451" to="2821299455" priority="5" type="highway.unclassified" numLanes="1" speed="13.89" disallow="tram rail_urban rail rail_electric ship"/>
    <edge id="-277649148" from="41969517" to="2821299451" priority="5" type="highway.unclassified" numLanes="1" speed="13.89" shape="1619.87,867.26 1637.37,808.96 1638.78,803.08" disallow="tram rail_urban rail rail_electric ship"/>
    <edge id="-277707115" from="2821754482" to="2821754483" priority="5" type="highway.unclassified" numLanes="1" speed="13.89" shape="1618.24,1835.44 1571.72,1845.26 1564.42,1844.50" disallow="tram rail_urban rail rail_electric ship"/>
    <edge id="-27915255" from="41972411" to="295005297" priority="5" type="highway.unclassified" numLanes="1" speed="13.89" shape="1176.31,1104.97 1164.86,1110.94 1159.78,1112.06 1153.85,1112.06 1109.57,1100.16" disallow="tram rail_urban rail rail_electric ship"/>
    <edge id="-301818149" from="3059698735" to="2809925464" priority="4" type="highway.residential" numLanes="1" speed="8.33" disallow="tram rail_urban rail rail_electric ship"/>
    <edge id="-301818150" from="41965504" to="3059698735" priority="4" type="highway.residential" numLanes="1" speed="8.33" disallow="tram rail_urban rail rail_electric ship"/>
    <edge id="-302773813#0" from="41980588" to="41980411" priority="5" type="highway.unclassified" numLanes="1" speed="8.33" disallow="tram rail_urban rail rail_electric ship"/>
    <edge id="-302773813#1" from="41980805" to="41980588" priority="5" type="highway.unclassified" numLanes="1" speed="8.33" disallow="tram rail_urban rail rail_electric ship"/>
    <edge id="-302773813#2" from="41980867" to="41980805" priority="5" type="highway.unclassified" numLanes="1" speed="8.33" disallow="tram rail_urban rail rail_electric ship"/>
    <edge id="-302791989#0" from="41984463" to="41984187" priority="3" type="highway.living_street" numLanes="1" speed="2.78" shape="2002.72,2004.16 2036.45,2011.43 2039.46,2011.73 2042.51,2011.28 2044.83,2009.67 2046.60,2007.65 2047.25,2005.42 2046.83,2002.90 2045.57,1999.70 2029.65,1977.68" disallow="tram rail_urban rail rail_electric ship"/>
    <edge id="-302791989#1" from="41984296" to="41984463" priority="3" type="highway.living_street" numLanes="1" speed="2.78" disallow="tram rail_urban rail rail_electric ship"/>
    <edge id="-31138878#0" from="41968003" to="41967957" priority="6" type="highway.tertiary" numLanes="1" speed="8.33" disallow="tram rail_urban rail rail_electric ship"/>
    <edge id="-31138878#1" from="41968513" to="41968003" priority="6" type="highway.tertiary" numLanes="1" speed="8.33" shape="983.51,770.77 874.95,722.62 861.92,717.34" disallow="tram rail_urban rail rail_electric ship"/>
    <edge id="-31138878#2" from="41968784" to="41968513" priority="6" type="highway.tertiary" numLanes="1" speed="8.33" disallow="tram rail_urban rail rail_electric ship"/>
    <edge id="-31261358" from="715608720" to="41970569" priority="5" type="highway.unclassified" numLanes="1" speed="13.89" disallow="tram rail_urban rail rail_electric ship"/>
    <edge id="-313162306" from="4923833064" to="2339199840" priority="5" type="highway.unclassified" numLanes="1" speed="8.33" shape="2738.26,1890.01 2727.49,1889.64 2678.29,1888.06" disallow="tram rail_urban rail rail_electric ship"/>
    <edge id="-31901599" from="41971792" to="41971384" priority="5" type="highway.unclassified" numLanes="1" speed="13.89" disallow="tram rail_urban rail rail_electric ship"/>
    <edge id="-32064192" from="183957959" to="359969685" priority="6" type="highway.tertiary" numLanes="1" speed="13.89" disallow="tram rail_urban rail rail_electric ship"/>
    <edge id="-32102945" from="955038957" to="41987728" priority="7" type="highway.secondary" numLanes="2" speed="13.89" shape="1911.76,2382.68 1902.13,2373.20 1894.14,2363.09 1888.88,2353.83 1884.50,2344.50 1881.41,2336.88 1878.66,2325.92 1876.63,2313.32 1875.61,2296.63 1876.48,2278.81 1879.21,2262.21" disallow="tram rail_urban rail rail_electric ship"/>
    <edge id="-32781129" from="41977055" to="369257509" priority="5" type="highway.unclassified" numLanes="1" speed="13.89" disallow="tram rail_urban rail rail_electric ship"/>
    <edge id="-33073203" from="294033394" to="360677329" priority="5" type="highway.unclassified" numLanes="1" speed="13.89" disallow="tram rail_urban rail rail_electric ship"/>
    <edge id="-333815619" from="4969225651" to="4928665344" priority="5" type="highway.unclassified" numLanes="1" speed="13.89" shape="738.17,2138.30 706.15,2169.16 649.69,2214.36" disallow="tram rail_urban rail rail_electric ship"/>
    <edge id="-34249124" from="392789717" to="41967958" priority="5" type="highway.unclassified" numLanes="1" speed="13.89" disallow="tram rail_urban rail rail_electric ship"/>
    <edge id="-343481053" from="41988512" to="41988440" priority="5" type="highway.unclassified" numLanes="1" speed="13.89" disallow="tram rail_urban rail rail_electric ship"/>
    <edge id="-343919233" from="41984317" to="715806654" priority="6" type="highway.tertiary" numLanes="1" speed="13.89" shape="1300.78,1966.23 1293.93,1955.97 1289.45,1949.39 1287.45,1940.35" disallow="tram rail_urban rail rail_electric ship"/>
    <edge id="-346026926" from="41983818" to="31011812" priority="7" type="highway.secondary" numLanes="2" speed="13.89" disallow="tram rail_urban rail rail_electric ship"/>
    <edge id="-347976787" from="2824864676" to="3542013577" priority="5" type="highway.unclassified" numLanes="1" speed="13.89" disallow="tram rail_urban rail rail_electric ship"/>
    <edge id="-347976788#0" from="41971178" to="2824864676" priority="5" type="highway.unclassified" numLanes="1" speed="13.89" disallow="tram rail_urban rail rail_electric ship"/>
    <edge id="-347976788#1" from="3542013579" to="41971178" priority="5" type="highway.unclassified" numLanes="1" speed="13.89" disallow="tram rail_urban rail rail_electric ship"/>
    <edge id="-347976788#2" from="3542013577" to="3542013579" priority="5" type="highway.unclassified" numLanes="1" speed="13.89" disallow="tram rail_urban rail rail_electric ship"/>
    <edge id="-347976788#3" from="2824864676" to="3542013577" priority="5" type="highway.unclassified" numLanes="1" speed="13.89" disallow="tram rail_urban rail rail_electric ship"/>
    <edge id="-347976790" from="294032952" to="3542013577" priority="5" type="highway.unclassified" numLanes="1" speed="13.89" shape="1324.01,1060.37 1318.59,1050.44 1305.75,1023.96 1303.18,1017.55 1300.41,1008.86" disallow="tram rail_urban rail rail_electric ship"/>
    <edge id="-357771033" from="41987728" to="41987037" priority="7" type="highway.secondary" numLanes="2" speed="13.89" shape="1879.21,2262.21 1886.94,2222.33 1889.60,2209.15" disallow="tram rail_urban rail rail_electric ship"/>
    <edge id="-358586202" from="359969685" to="2145048813" priority="5" type="highway.unclassified" numLanes="1" speed="13.89" disallow="tram rail_urban rail rail_electric ship"/>
    <edge id="-377073560" from="840618093" to="3804362746" priority="7" type="highway.secondary" numLanes="2" speed="13.89" shape="554.25,576.18 567.25,545.64 571.38,535.92 577.80,521.77" disallow="tram rail_urban rail rail_electric ship"/>
    <edge id="-38785111" from="715806675" to="41984317" priority="7" type="highway.secondary" numLanes="2" speed="13.89" shape="1287.27,2122.77 1285.17,2016.63 1284.87,2001.79 1286.93,1986.68 1288.19,1981.29 1290.35,1976.22 1293.30,1972.62 1296.16,1969.40 1300.78,1966.23" disallow="tram rail_urban rail rail_electric ship"/>
    <edge id="-38785609" from="295929074" to="295929252" priority="5" type="highway.unclassified" numLanes="1" speed="13.89" shape="2113.98,423.37 2173.75,432.61 2199.40,436.65" disallow="tram rail_urban rail rail_electric ship"/>
    <edge id="-38839727" from="293952429" to="293952786" priority="6" type="highway.tertiary" numLanes="1" speed="22.22" disallow="tram rail_urban rail rail_electric ship"/>
    <edge id="-38839728" from="41973031" to="293952429" priority="6" type="highway.tertiary" numLanes="1" speed="13.89" shape="2503.07,1203.32 2504.33,1153.17 2506.47,1088.17 2507.04,1075.23" disallow="tram rail_urban rail rail_electric ship"/>