<?xml version="1.0" encoding="UTF-8"?>

<!-- generated on 05/16/18 16:48:18 by SUMO netconvert Version 0.32.0
<?xml version="1.0" encoding="UTF-8"?>

<configuration xmlns:xsi="http://www.w3.org/2001/XMLSchema-instance" xsi:noNamespaceSchemaLocation="http://sumo.dlr.de/xsd/netconvertConfiguration.xsd">

    <input>
        <osm-files value="export.osm"/>
    </input>

    <output>
        <output-file value="MaasRoadOnly.net.xml"/>
    </output>

    <projection>
        <proj.utm value="true"/>
    </projection>

    <edge_removal>
        <remove-edges.isolated value="true"/>
    </edge_removal>

</configuration>
-->

<net version="0.27" xmlns:xsi="http://www.w3.org/2001/XMLSchema-instance" xsi:noNamespaceSchemaLocation="http://sumo.dlr.de/xsd/net_file.xsd">

    <location netOffset="-688042.56,-5635310.98" convBoundary="0.00,0.00,3132.15,2805.46" origBoundary="5.672027,50.838823,5.716686,50.863087" projParameter="+proj=utm +zone=31 +ellps=WGS84 +datum=WGS84 +units=m +no_defs"/>

    <type id="highway.bridleway" priority="1" numLanes="1" speed="2.78" allow="pedestrian" oneway="1" width="2.00"/>
    <type id="highway.bus_guideway" priority="1" numLanes="1" speed="8.33" allow="bus" oneway="1"/>
    <type id="highway.cycleway" priority="1" numLanes="1" speed="5.56" allow="bicycle" oneway="0" width="1.00"/>
    <type id="highway.footway" priority="1" numLanes="1" speed="2.78" allow="pedestrian" oneway="1" width="2.00"/>
    <type id="highway.ford" priority="1" numLanes="1" speed="2.78" allow="army" oneway="0"/>
    <type id="highway.living_street" priority="3" numLanes="1" speed="2.78" disallow="tram rail_urban rail rail_electric ship" oneway="0"/>
    <type id="highway.motorway" priority="13" numLanes="2" speed="44.44" allow="private emergency authority army vip passenger hov taxi bus coach delivery truck trailer motorcycle evehicle custom1 custom2" oneway="1"/>
    <type id="highway.motorway_link" priority="12" numLanes="1" speed="22.22" allow="private emergency authority army vip passenger hov taxi bus coach delivery truck trailer motorcycle evehicle custom1 custom2" oneway="1"/>
    <type id="highway.path" priority="1" numLanes="1" speed="2.78" allow="bicycle pedestrian" oneway="1" width="2.00"/>
    <type id="highway.pedestrian" priority="1" numLanes="1" speed="2.78" allow="pedestrian" oneway="1" width="2.00"/>
    <type id="highway.primary" priority="9" numLanes="2" speed="27.78" disallow="tram rail_urban rail rail_electric ship" oneway="0"/>
    <type id="highway.primary_link" priority="8" numLanes="1" speed="22.22" disallow="tram rail_urban rail rail_electric ship" oneway="0"/>
    <type id="highway.raceway" priority="14" numLanes="2" speed="83.33" allow="vip" oneway="0"/>
    <type id="highway.residential" priority="4" numLanes="1" speed="13.89" disallow="tram rail_urban rail rail_electric ship" oneway="0"/>
    <type id="highway.secondary" priority="7" numLanes="2" speed="27.78" disallow="tram rail_urban rail rail_electric ship" oneway="0"/>
    <type id="highway.secondary_link" priority="6" numLanes="1" speed="22.22" disallow="tram rail_urban rail rail_electric ship" oneway="0"/>
    <type id="highway.service" priority="2" numLanes="1" speed="5.56" allow="delivery bicycle pedestrian" oneway="0"/>
    <type id="highway.services" priority="1" numLanes="1" speed="8.33" disallow="tram rail_urban rail rail_electric ship" oneway="0"/>
    <type id="highway.stairs" priority="1" numLanes="1" speed="1.39" allow="pedestrian" oneway="1" width="2.00"/>
    <type id="highway.step" priority="1" numLanes="1" speed="1.39" allow="pedestrian" oneway="1" width="2.00"/>
    <type id="highway.steps" priority="1" numLanes="1" speed="1.39" allow="pedestrian" oneway="1" width="2.00"/>
    <type id="highway.tertiary" priority="6" numLanes="1" speed="22.22" disallow="tram rail_urban rail rail_electric ship" oneway="0"/>
    <type id="highway.tertiary_link" priority="5" numLanes="1" speed="22.22" disallow="tram rail_urban rail rail_electric ship" oneway="0"/>
    <type id="highway.track" priority="1" numLanes="1" speed="5.56" disallow="tram rail_urban rail rail_electric ship" oneway="0"/>
    <type id="highway.trunk" priority="11" numLanes="2" speed="27.78" disallow="tram rail_urban rail rail_electric bicycle pedestrian ship" oneway="0"/>
    <type id="highway.trunk_link" priority="10" numLanes="1" speed="22.22" disallow="tram rail_urban rail rail_electric bicycle pedestrian ship" oneway="0"/>
    <type id="highway.unclassified" priority="5" numLanes="1" speed="13.89" disallow="tram rail_urban rail rail_electric ship" oneway="0"/>
    <type id="highway.unsurfaced" priority="1" numLanes="1" speed="8.33" disallow="tram rail_urban rail rail_electric ship" oneway="0"/>
    <type id="railway.light_rail" priority="15" numLanes="1" speed="27.78" allow="rail_urban" oneway="1"/>
    <type id="railway.preserved" priority="15" numLanes="1" speed="27.78" allow="rail" oneway="1"/>
    <type id="railway.rail" priority="15" numLanes="1" speed="83.33" allow="rail rail_electric" oneway="1"/>
    <type id="railway.subway" priority="15" numLanes="1" speed="27.78" allow="rail_urban" oneway="1"/>
    <type id="railway.tram" priority="15" numLanes="1" speed="13.89" allow="tram" oneway="1"/>

    <edge id=":1013679429_0" function="internal">
        <lane id=":1013679429_0_0" index="0" disallow="tram rail_urban rail rail_electric ship" speed="13.89" length="0.24" shape="1250.51,2321.15 1250.47,2321.36"/>
        <lane id=":1013679429_0_1" index="1" disallow="tram rail_urban rail rail_electric ship" speed="13.89" length="0.24" shape="1247.30,2320.39 1247.24,2320.65"/>
    </edge>
    <edge id=":1013679429_2" function="internal">
        <lane id=":1013679429_2_0" index="0" disallow="tram rail_urban rail rail_electric ship" speed="13.89" length="2.41" shape="1247.30,2320.39 1246.21,2321.41 1245.32,2321.62"/>
    </edge>
    <edge id=":1013679429_6" function="internal">
        <lane id=":1013679429_6_0" index="0" speed="13.89" length="2.41" shape="1245.32,2321.62 1244.61,2321.03 1244.09,2319.63"/>
    </edge>
    <edge id=":1013679429_3" function="internal">
        <lane id=":1013679429_3_0" index="0" disallow="tram rail_urban rail rail_electric ship" speed="13.89" length="0.34" shape="1240.80,2319.23 1240.88,2318.87"/>
        <lane id=":1013679429_3_1" index="1" disallow="tram rail_urban rail rail_electric ship" speed="13.89" length="0.34" shape="1244.02,2319.94 1244.09,2319.63"/>
    </edge>
    <edge id=":1013679429_5" function="internal">
        <lane id=":1013679429_5_0" index="0" disallow="tram rail_urban rail rail_electric ship" speed="13.89" length="2.41" shape="1244.02,2319.94 1245.09,2318.91 1245.99,2318.68"/>
    </edge>
    <edge id=":1013679429_7" function="internal">
        <lane id=":1013679429_7_0" index="0" speed="13.89" length="2.41" shape="1245.99,2318.68 1246.70,2319.26 1247.24,2320.65"/>
    </edge>
    <edge id=":1157626235_0" function="internal">
        <lane id=":1157626235_0_0" index="0" disallow="tram rail_urban rail rail_electric ship" speed="13.89" length="3.31" shape="1975.10,2414.16 1975.16,2410.85"/>
        <lane id=":1157626235_0_1" index="1" disallow="tram rail_urban rail rail_electric ship" speed="13.89" length="3.31" shape="1975.45,2410.88 1975.56,2407.57"/>
    </edge>
    <edge id=":1186147988_0" function="internal">
        <lane id=":1186147988_0_0" index="0" disallow="tram rail_urban rail rail_electric ship" speed="13.89" length="0.95" shape="2222.29,2469.11 2222.41,2469.17 2222.50,2469.21 2222.59,2469.23 2222.73,2469.26"/>
        <lane id=":1186147988_0_1" index="1" disallow="tram rail_urban rail rail_electric ship" speed="13.89" length="0.95" shape="2220.79,2472.05 2221.17,2472.24 2221.44,2472.35 2221.72,2472.42 2222.14,2472.50"/>
    </edge>
    <edge id=":1186148047_0" function="internal">
        <lane id=":1186148047_0_0" index="0" disallow="tram rail_urban rail rail_electric ship" speed="20.83" length="0.41" shape="2225.24,2490.32 2225.18,2490.31 2225.14,2490.31 2225.10,2490.31 2225.04,2490.31"/>
        <lane id=":1186148047_0_1" index="1" disallow="tram rail_urban rail rail_electric ship" speed="20.83" length="0.41" shape="2225.71,2487.06 2225.53,2487.03 2225.41,2487.02 2225.28,2487.01 2225.10,2487.01"/>
    </edge>
    <edge id=":1226742286_0" function="internal">
        <lane id=":1226742286_0_0" index="0" disallow="tram rail_urban rail rail_electric ship" speed="13.89" length="4.58" shape="1578.59,1737.17 1576.85,1737.29 1575.56,1737.54 1574.73,1737.91 1574.36,1738.40"/>
    </edge>
    <edge id=":1226742286_1" function="internal">
        <lane id=":1226742286_1_0" index="0" disallow="tram rail_urban rail rail_electric ship" speed="13.89" length="4.82" shape="1578.59,1737.17 1577.33,1736.38 1576.89,1735.57 1577.28,1734.73 1578.49,1733.87"/>
    </edge>
    <edge id=":1226742286_2" function="internal">
        <lane id=":1226742286_2_0" index="0" disallow="tram rail_urban rail rail_electric ship" speed="13.89" length="5.13" shape="1575.46,1730.70 1575.55,1732.12 1576.09,1733.13 1577.07,1733.71 1578.49,1733.87"/>
    </edge>
    <edge id=":1226742286_3" function="internal">
        <lane id=":1226742286_3_0" index="0" disallow="tram rail_urban rail rail_electric ship" speed="13.89" length="7.80" shape="1575.46,1730.70 1575.30,1733.01 1575.17,1734.59 1574.90,1736.16 1574.36,1738.40"/>
    </edge>
    <edge id=":1232580150_0" function="internal">
        <lane id=":1232580150_0_0" index="0" disallow="tram rail_urban rail rail_electric ship" speed="8.33" length="2.01" shape="476.73,1160.72 477.24,1160.57 477.72,1160.58 478.16,1160.75 478.57,1161.09"/>
    </edge>
    <edge id=":1256687064_0" function="internal">
        <lane id=":1256687064_0_0" index="0" disallow="tram rail_urban rail rail_electric ship" speed="13.89" length="1.06" shape="853.90,484.09 852.84,484.22"/>
    </edge>
    <edge id=":1256687064_2" function="internal">
        <lane id=":1256687064_2_0" index="0" speed="13.89" length="3.76" shape="852.84,484.22 852.42,484.27 851.57,483.91 851.34,483.02 851.75,481.59"/>
    </edge>
    <edge id=":1256687064_1" function="internal">
        <lane id=":1256687064_1_0" index="0" disallow="tram rail_urban rail rail_electric ship" speed="13.89" length="2.69" shape="851.21,484.22 851.75,481.59"/>
    </edge>
    <edge id=":1256908096_0" function="internal">
        <lane id=":1256908096_0_0" index="0" disallow="tram rail_urban rail rail_electric ship" speed="8.33" length="5.01" shape="575.76,1141.21 574.42,1140.92 573.30,1141.13 572.43,1141.84 571.78,1143.06"/>
    </edge>
    <edge id=":1256908096_1" function="internal">
        <lane id=":1256908096_1_0" index="0" disallow="tram rail_urban rail rail_electric ship" speed="8.33" length="4.82" shape="575.76,1141.21 574.89,1140.00 574.79,1139.09 575.46,1138.46 576.91,1138.11"/>
    </edge>
    <edge id=":1256908096_2" function="internal">
        <lane id=":1256908096_2_0" index="0" disallow="tram rail_urban rail rail_electric ship" speed="8.33" length="5.08" shape="574.88,1134.11 574.65,1135.45 574.91,1136.56 575.66,1137.45 576.91,1138.11"/>
    </edge>
    <edge id=":1256908096_3" function="internal">
        <lane id=":1256908096_3_0" index="0" disallow="tram rail_urban rail rail_electric ship" speed="8.33" length="9.47" shape="574.88,1134.11 571.78,1143.06"/>
    </edge>
    <edge id=":1256908098_0" function="internal">
        <lane id=":1256908098_0_0" index="0" disallow="tram rail_urban rail rail_electric ship" speed="8.33" length="9.46" shape="620.99,1151.27 617.34,1160.00"/>
    </edge>
    <edge id=":1256908098_1" function="internal">
        <lane id=":1256908098_1_0" index="0" disallow="tram rail_urban rail rail_electric ship" speed="8.33" length="7.87" shape="620.99,1151.27 619.70,1153.74 618.37,1155.35 616.99,1156.10 615.57,1155.99"/>
    </edge>
    <edge id=":1256908098_2" function="internal">
        <lane id=":1256908098_2_0" index="0" disallow="tram rail_urban rail rail_electric ship" speed="8.33" length="7.92" shape="616.72,1152.90 617.89,1153.77 618.39,1155.24 618.20,1157.32 617.34,1160.00"/>
    </edge>
    <edge id=":1256908098_3" function="internal">
        <lane id=":1256908098_3_0" index="0" disallow="tram rail_urban rail rail_electric ship" speed="8.33" length="4.82" shape="616.72,1152.90 617.59,1154.11 617.69,1155.02 617.01,1155.65 615.57,1155.99"/>
    </edge>
    <edge id=":1256908100_0" function="internal">
        <lane id=":1256908100_0_0" index="0" disallow="tram rail_urban rail rail_electric ship" speed="8.33" length="5.11" shape="597.06,1078.05 595.69,1077.68 594.57,1077.86 593.69,1078.57 593.05,1079.84"/>
    </edge>
    <edge id=":1256908100_1" function="internal">
        <lane id=":1256908100_1_0" index="0" disallow="tram rail_urban rail rail_electric ship" speed="8.33" length="4.82" shape="597.06,1078.05 596.25,1076.80 596.20,1075.88 596.91,1075.29 598.37,1075.03"/>
    </edge>
    <edge id=":1256908100_2" function="internal">
        <lane id=":1256908100_2_0" index="0" disallow="tram rail_urban rail rail_electric ship" speed="8.33" length="5.29" shape="596.33,1070.82 596.04,1072.15 596.28,1073.29 597.06,1074.25 598.37,1075.03"/>
    </edge>
    <edge id=":1256908100_3" function="internal">
        <lane id=":1256908100_3_0" index="0" disallow="tram rail_urban rail rail_electric ship" speed="8.33" length="9.59" shape="596.33,1070.82 593.05,1079.84"/>
    </edge>
    <edge id=":1268979618_0" function="internal">
        <lane id=":1268979618_0_0" index="0" disallow="tram rail_urban rail rail_electric ship" speed="13.89" length="17.95" shape="1804.43,531.00 1802.78,526.12 1800.69,523.17 1797.78,520.73 1793.65,517.34"/>
        <lane id=":1268979618_0_1" index="1" disallow="tram rail_urban rail rail_electric ship" speed="13.89" length="17.95" shape="1804.43,531.00 1803.22,525.80 1802.10,522.20 1800.16,519.11 1796.45,515.41"/>
    </edge>
    <edge id=":1268979618_2" function="internal">
        <lane id=":1268979618_2_0" index="0" disallow="tram rail_urban rail rail_electric ship" speed="13.89" length="17.89" shape="1804.43,531.00 1800.12,513.63"/>
        <lane id=":1268979618_2_1" index="1" disallow="tram rail_urban rail rail_electric ship" speed="13.89" length="17.89" shape="1807.64,530.20 1803.32,512.84"/>
    </edge>
    <edge id=":1268979622_0" function="internal">
        <lane id=":1268979622_0_0" index="0" disallow="tram rail_urban rail rail_electric ship" speed="18.05" length="16.62" shape="1787.56,395.99 1788.63,399.80 1790.44,403.69 1792.54,407.48 1794.51,411.00"/>
    </edge>
    <edge id=":1268979622_1" function="internal">
        <lane id=":1268979622_1_0" index="0" disallow="tram rail_urban rail rail_electric ship" speed="13.89" length="16.61" shape="1787.56,395.99 1791.15,412.20"/>
    </edge>
    <edge id=":1268979636_0" function="internal">
        <lane id=":1268979636_0_0" index="0" disallow="tram rail_urban rail rail_electric ship" speed="11.11" length="13.32" shape="1784.96,510.14 1782.15,507.76 1780.18,505.93 1778.00,504.84 1774.58,504.67"/>
        <lane id=":1268979636_0_1" index="1" disallow="tram rail_urban rail rail_electric ship" speed="11.11" length="13.32" shape="1786.77,507.38 1783.43,504.65 1781.02,502.64 1778.37,501.51 1774.30,501.39"/>
    </edge>
    <edge id=":1268979636_2" function="internal">
        <lane id=":1268979636_2_0" index="0" disallow="tram rail_urban rail rail_electric ship" speed="11.11" length="13.24" shape="1787.78,503.42 1774.58,504.67"/>
        <lane id=":1268979636_2_1" index="1" disallow="tram rail_urban rail rail_electric ship" speed="11.11" length="13.24" shape="1787.46,500.14 1774.30,501.39"/>
    </edge>
    <edge id=":1268979639_0" function="internal">
        <lane id=":1268979639_0_0" index="0" disallow="tram rail_urban rail rail_electric ship" speed="22.22" length="0.10" shape="1812.15,428.94 1812.15,428.94"/>
    </edge>
    <edge id=":1268979642_0" function="internal">
        <lane id=":1268979642_0_0" index="0" disallow="tram rail_urban rail rail_electric ship" speed="18.05" length="4.90" shape="1813.36,429.62 1814.38,430.03 1815.51,430.19 1816.76,430.11 1818.13,429.78"/>
    </edge>
    <edge id=":1268979642_1" function="internal">
        <lane id=":1268979642_1_0" index="0" disallow="tram rail_urban rail rail_electric ship" speed="13.89" length="2.87" shape="1815.44,430.58 1818.13,429.78"/>
        <lane id=":1268979642_1_1" index="1" disallow="tram rail_urban rail rail_electric ship" speed="13.89" length="2.87" shape="1816.31,433.76 1819.13,432.93"/>
    </edge>
    <edge id=":1271090679_0" function="internal">
        <lane id=":1271090679_0_0" index="0" disallow="tram rail_urban rail rail_electric ship" speed="13.89" length="3.46" shape="2766.59,2347.64 2765.83,2348.21 2765.56,2348.93 2765.30,2349.66 2764.55,2350.26"/>
        <lane id=":1271090679_0_1" index="1" disallow="tram rail_urban rail rail_electric ship" speed="13.89" length="3.46" shape="2766.59,2347.64 2763.25,2347.22"/>
        <lane id=":1271090679_0_2" index="2" disallow="tram rail_urban rail rail_electric ship" speed="13.89" length="3.46" shape="2765.38,2344.57 2764.39,2344.68 2763.66,2344.36 2762.93,2344.05 2761.95,2344.19"/>
    </edge>
    <edge id=":1282646917_0" function="internal">
        <lane id=":1282646917_0_0" index="0" disallow="tram rail_urban rail rail_electric ship" speed="11.11" length="7.00" shape="2108.12,1385.23 2106.07,1385.67 2104.51,1385.77 2103.17,1386.17 2101.76,1387.51"/>
    </edge>
    <edge id=":1282646917_1" function="internal">
        <lane id=":1282646917_1_0" index="0" disallow="tram rail_urban rail rail_electric ship" speed="11.11" length="20.35" shape="2108.12,1385.23 2101.14,1386.99 2097.60,1386.32 2097.51,1383.23 2100.86,1377.72"/>
    </edge>
    <edge id=":1282646917_2" function="internal">
        <lane id=":1282646917_2_0" index="0" disallow="tram rail_urban rail rail_electric ship" speed="13.89" length="7.27" shape="2106.13,1381.69 2101.76,1387.51"/>
        <lane id=":1282646917_2_1" index="1" disallow="tram rail_urban rail rail_electric ship" speed="13.89" length="7.27" shape="2103.50,1379.70 2099.14,1385.50"/>
    </edge>
    <edge id=":1282646917_4" function="internal">
        <lane id=":1282646917_4_0" index="0" disallow="tram rail_urban rail rail_electric ship" speed="13.89" length="2.41" shape="2103.50,1379.70 2102.09,1380.20 2101.18,1380.03"/>
    </edge>
    <edge id=":1282646917_8" function="internal">
        <lane id=":1282646917_8_0" index="0" speed="13.89" length="2.41" shape="2101.18,1380.03 2100.77,1379.20 2100.86,1377.72"/>
    </edge>
    <edge id=":1282646917_5" function="internal">
        <lane id=":1282646917_5_0" index="0" disallow="tram rail_urban rail rail_electric ship" speed="13.89" length="7.22" shape="2093.90,1381.49 2098.23,1375.73"/>
        <lane id=":1282646917_5_1" index="1" disallow="tram rail_urban rail rail_electric ship" speed="13.89" length="7.22" shape="2096.52,1383.50 2100.86,1377.72"/>
    </edge>
    <edge id=":1282646917_7" function="internal">
        <lane id=":1282646917_7_0" index="0" disallow="tram rail_urban rail rail_electric ship" speed="13.89" length="2.41" shape="2096.52,1383.50 2097.93,1383.02 2098.83,1383.19"/>
    </edge>
    <edge id=":1282646917_9" function="internal">
        <lane id=":1282646917_9_0" index="0" speed="13.89" length="2.41" shape="2098.83,1383.19 2099.24,1384.02 2099.14,1385.50"/>
    </edge>
    <edge id=":1282646921_0" function="internal">
        <lane id=":1282646921_0_0" index="0" disallow="tram rail_urban rail rail_electric ship" speed="13.89" length="7.17" shape="2089.95,1402.95 2088.89,1404.69 2088.61,1406.10 2088.77,1407.64 2089.02,1409.78"/>
    </edge>
    <edge id=":1282646921_1" function="internal">
        <lane id=":1282646921_1_0" index="0" disallow="tram rail_urban rail rail_electric ship" speed="13.89" length="3.77" shape="2089.95,1402.95 2089.21,1403.82 2088.65,1404.36 2088.06,1404.88 2087.29,1405.72"/>
        <lane id=":1282646921_1_1" index="1" disallow="tram rail_urban rail rail_electric ship" speed="13.89" length="3.77" shape="2087.33,1400.95 2086.62,1401.78 2086.07,1402.29 2085.51,1402.79 2084.77,1403.59"/>
    </edge>
    <edge id=":1282646921_3" function="internal">
        <lane id=":1282646921_3_0" index="0" disallow="tram rail_urban rail rail_electric ship" speed="13.89" length="2.66" shape="2087.33,1400.95 2085.92,1401.43 2085.01,1401.26 2084.90,1401.03"/>
    </edge>
    <edge id=":1282646921_8" function="internal">
        <lane id=":1282646921_8_0" index="0" speed="13.89" length="2.16" shape="2084.90,1401.03 2084.61,1400.43 2084.71,1398.94"/>
    </edge>
    <edge id=":1282646921_4" function="internal">
        <lane id=":1282646921_4_0" index="0" disallow="tram rail_urban rail rail_electric ship" speed="13.89" length="3.50" shape="2079.69,1399.38 2082.08,1396.94"/>
        <lane id=":1282646921_4_1" index="1" disallow="tram rail_urban rail rail_electric ship" speed="13.89" length="3.50" shape="2082.21,1401.50 2084.71,1398.94"/>
    </edge>
    <edge id=":1282646921_6" function="internal">
        <lane id=":1282646921_6_0" index="0" disallow="tram rail_urban rail rail_electric ship" speed="13.89" length="8.27" shape="2082.21,1401.50 2084.81,1399.45 2086.81,1400.14 2087.88,1402.77"/>
    </edge>
    <edge id=":1282646921_7" function="internal">
        <lane id=":1282646921_7_0" index="0" disallow="tram rail_urban rail rail_electric ship" speed="13.89" length="2.60" shape="2082.21,1401.50 2083.63,1401.07 2084.53,1401.27 2084.61,1401.45"/>
    </edge>
    <edge id=":1282646921_9" function="internal">
        <lane id=":1282646921_9_0" index="0" speed="13.89" length="7.12" shape="2087.88,1402.77 2088.21,1403.58 2089.02,1409.78"/>
    </edge>
    <edge id=":1282646921_10" function="internal">
        <lane id=":1282646921_10_0" index="0" speed="13.89" length="2.22" shape="2084.61,1401.45 2084.91,1402.11 2084.77,1403.59"/>
    </edge>
    <edge id=":1282646924_0" function="internal">
        <lane id=":1282646924_0_0" index="0" disallow="tram rail_urban rail rail_electric ship" speed="8.33" length="7.77" shape="2095.69,1430.21 2088.31,1427.80"/>
    </edge>
    <edge id=":1282646924_1" function="internal">
        <lane id=":1282646924_1_0" index="0" disallow="tram rail_urban rail rail_electric ship" speed="8.33" length="2.71" shape="2095.69,1430.21 2094.77,1429.05 2094.63,1428.13 2094.84,1427.92"/>
    </edge>
    <edge id=":1282646924_6" function="internal">
        <lane id=":1282646924_6_0" index="0" speed="8.33" length="2.11" shape="2094.84,1427.92 2095.28,1427.48 2096.71,1427.07"/>
    </edge>
    <edge id=":1282646924_2" function="internal">
        <lane id=":1282646924_2_0" index="0" disallow="tram rail_urban rail rail_electric ship" speed="11.11" length="7.55" shape="2092.12,1421.42 2092.97,1423.52 2094.02,1425.16 2095.26,1426.34 2096.71,1427.07"/>
    </edge>
    <edge id=":1282646924_3" function="internal">
        <lane id=":1282646924_3_0" index="0" disallow="tram rail_urban rail rail_electric ship" speed="11.11" length="6.25" shape="2092.12,1421.42 2092.91,1425.02 2092.54,1427.28 2092.30,1427.42"/>
    </edge>
    <edge id=":1282646924_7" function="internal">
        <lane id=":1282646924_7_0" index="0" speed="11.11" length="4.24" shape="2092.30,1427.42 2091.01,1428.20 2088.31,1427.80"/>
    </edge>
    <edge id=":1282646924_4" function="internal">
        <lane id=":1282646924_4_0" index="0" disallow="tram rail_urban rail rail_electric ship" speed="8.33" length="7.76" shape="2089.33,1424.66 2096.71,1427.07"/>
    </edge>
    <edge id=":1282646924_5" function="internal">
        <lane id=":1282646924_5_0" index="0" disallow="tram rail_urban rail rail_electric ship" speed="8.33" length="4.82" shape="2089.33,1424.66 2090.25,1425.83 2090.39,1426.74 2089.74,1427.40 2088.31,1427.80"/>
    </edge>
    <edge id=":1283012126_0" function="internal">
        <lane id=":1283012126_0_0" index="0" disallow="tram rail_urban rail rail_electric ship" speed="13.89" length="2.78" shape="1978.80,1503.19 1978.40,1502.48 1978.19,1501.94 1978.12,1501.37 1978.14,1500.55"/>
    </edge>
    <edge id=":1283012126_1" function="internal">
        <lane id=":1283012126_1_0" index="0" disallow="tram rail_urban rail rail_electric ship" speed="13.89" length="2.85" shape="1978.80,1503.19 1978.89,1501.71 1979.39,1500.94 1979.83,1500.91"/>
    </edge>
    <edge id=":1283012126_4" function="internal">
        <lane id=":1283012126_4_0" index="0" speed="13.89" length="1.97" shape="1979.83,1500.91 1980.32,1500.88 1981.65,1501.54"/>
    </edge>
    <edge id=":1283012126_2" function="internal">
        <lane id=":1283012126_2_0" index="0" disallow="tram rail_urban rail rail_electric ship" speed="13.89" length="0.91" shape="1981.43,1500.68 1981.43,1500.94 1981.45,1501.13 1981.52,1501.30 1981.65,1501.54"/>
    </edge>
    <edge id=":1283012126_3" function="internal">
        <lane id=":1283012126_3_0" index="0" disallow="tram rail_urban rail rail_electric ship" speed="13.89" length="2.07" shape="1981.43,1500.68 1980.57,1501.88 1980.03,1502.12"/>
    </edge>
    <edge id=":1283012126_5" function="internal">
        <lane id=":1283012126_5_0" index="0" speed="13.89" length="2.75" shape="1980.03,1502.12 1979.73,1502.26 1978.92,1501.82 1978.14,1500.55"/>
    </edge>
    <edge id=":1408484179_0" function="internal">
        <lane id=":1408484179_0_0" index="0" disallow="tram rail_urban rail rail_electric ship" speed="13.89" length="0.67" shape="1323.10,864.84 1323.03,864.66 1323.00,864.53 1322.99,864.39 1323.00,864.19"/>
    </edge>
    <edge id=":1453710862_0" function="internal">
        <lane id=":1453710862_0_0" index="0" disallow="tram rail_urban rail rail_electric ship" speed="13.89" length="0.28" shape="2284.11,396.07 2283.88,396.13"/>
        <lane id=":1453710862_0_1" index="1" disallow="tram rail_urban rail rail_electric ship" speed="13.89" length="0.28" shape="2283.24,392.88 2282.94,392.97"/>
    </edge>
    <edge id=":1480043666_0" function="internal">
        <lane id=":1480043666_0_0" index="0" disallow="tram rail_urban rail rail_electric ship" speed="13.89" length="30.07" shape="1866.43,434.39 1873.91,434.82 1881.35,434.78 1888.71,434.06 1895.96,432.43"/>
        <lane id=":1480043666_0_1" index="1" disallow="tram rail_urban rail rail_electric ship" speed="13.89" length="30.07" shape="1866.71,437.68 1874.30,437.66 1881.97,437.63 1889.56,437.10 1896.92,435.59"/>
    </edge>
    <edge id=":1480043666_2" function="internal">
        <lane id=":1480043666_2_0" index="0" disallow="tram rail_urban rail rail_electric ship" speed="13.89" length="29.90" shape="1867.38,441.21 1895.96,432.43"/>
        <lane id=":1480043666_2_1" index="1" disallow="tram rail_urban rail rail_electric ship" speed="13.89" length="29.90" shape="1868.35,444.37 1896.92,435.59"/>
    </edge>
    <edge id=":1480212347_0" function="internal">
        <lane id=":1480212347_0_0" index="0" disallow="tram rail_urban rail rail_electric ship" speed="18.05" length="5.47" shape="753.45,662.15 753.57,663.39 754.09,664.53 755.00,665.55 756.32,666.47"/>
    </edge>
    <edge id=":1480212347_1" function="internal">
        <lane id=":1480212347_1_0" index="0" disallow="tram rail_urban rail rail_electric ship" speed="13.89" length="5.87" shape="753.45,662.15 753.35,663.98 753.22,665.24 752.91,666.46 752.27,668.17"/>
        <lane id=":1480212347_1_1" index="1" disallow="tram rail_urban rail rail_electric ship" speed="13.89" length="5.87" shape="750.16,661.95 750.06,663.59 749.92,664.72 749.62,665.81 749.04,667.35"/>
    </edge>
    <edge id=":1480212348_0" function="internal">
        <lane id=":1480212348_0_0" index="0" disallow="tram rail_urban rail rail_electric ship" speed="13.89" length="11.05" shape="711.30,683.06 708.79,681.40 707.33,679.69 706.09,677.60 704.21,674.81"/>
    </edge>
    <edge id=":1480212348_1" function="internal">
        <lane id=":1480212348_1_0" index="0" disallow="tram rail_urban rail rail_electric ship" speed="13.89" length="8.26" shape="702.37,683.47 702.68,681.40 702.88,679.89 702.62,678.51 701.59,676.82"/>
        <lane id=":1480212348_1_1" index="1" disallow="tram rail_urban rail rail_electric ship" speed="13.89" length="8.26" shape="705.65,683.82 706.02,681.01 706.15,678.97 705.67,677.11 704.21,674.81"/>
    </edge>
    <edge id=":1480212349_0" function="internal">
        <lane id=":1480212349_0_0" index="0" disallow="tram rail_urban rail rail_electric ship" speed="13.89" length="6.53" shape="722.90,687.93 721.73,688.07 720.40,688.64 718.93,689.62 717.31,691.02"/>
    </edge>
    <edge id=":1480212349_1" function="internal">
        <lane id=":1480212349_1_0" index="0" disallow="tram rail_urban rail rail_electric ship" speed="13.89" length="9.21" shape="723.09,684.63 721.23,684.80 719.27,685.53 717.20,686.80 715.04,688.63"/>
    </edge>
    <edge id=":1480212349_2" function="internal">
        <lane id=":1480212349_2_0" index="0" disallow="tram rail_urban rail rail_electric ship" speed="13.89" length="11.37" shape="723.09,684.63 719.61,684.63 717.08,684.76 714.78,684.52 711.95,683.40"/>
    </edge>
    <edge id=":1480212351_0" function="internal">
        <lane id=":1480212351_0_0" index="0" disallow="tram rail_urban rail rail_electric ship" speed="18.05" length="7.89" shape="752.04,679.39 749.30,679.15 747.10,679.20 745.46,679.54 744.36,680.17"/>
    </edge>
    <edge id=":1480212351_1" function="internal">
        <lane id=":1480212351_1_0" index="0" disallow="tram rail_urban rail rail_electric ship" speed="18.05" length="10.78" shape="752.46,676.12 748.96,675.86 746.07,676.05 743.79,676.69 742.10,677.78"/>
    </edge>