<?xml version="1.0" encoding="UTF-8"?>

<!-- generated on 30-May-18 2:25:16 PM by Netedit Version 0.32.0
<?xml version="1.0" encoding="UTF-8"?>

<configuration xmlns:xsi="http://www.w3.org/2001/XMLSchema-instance" xsi:noNamespaceSchemaLocation="http://sumo.dlr.de/xsd/netconvertConfiguration.xsd">

    <input>
        <sumo-net-file value="C:\Users\UnPerson\Documents\Knowledge%20Engineering\Project%202.2\Project%202.2\core\assets\MapXmls\AZ\az.net.xml"/>
    </input>

    <output>
        <output-file value="C:\Users\UnPerson\Documents\Knowledge%20Engineering\Project%202.2\Project%202.2\core\assets\MapXmls\AZ\az.net.xml"/>
        <plain-output-prefix value="C:\Users\UnPerson\Documents\Knowledge%20Engineering\Project%202.2\Project%202.2\core\assets\MapXmls\AZ\TempeSmall"/>
    </output>

    <processing>
        <no-turnarounds value="true"/>
        <offset.disable-normalization value="true"/>
        <lefthand value="false"/>
        <junctions.corner-detail value="0"/>
        <rectangular-lane-cut value="false"/>
        <walkingareas value="false"/>
    </processing>

</configuration>
-->

<connections version="0.27" xmlns:xsi="http://www.w3.org/2001/XMLSchema-instance" xsi:noNamespaceSchemaLocation="http://sumo.dlr.de/xsd/connections_file.xsd">
    <connection from="-131637195" to="-436799418" fromLane="0" toLane="0"/>
    <connection from="-131637195" to="-436799418" fromLane="1" toLane="1"/>
    <connection from="-131637195" to="-436799418" fromLane="2" toLane="2"/>
    <connection from="-131637195" to="131637195" fromLane="2" toLane="3"/>

    <connection from="-146204145" to="146204145" fromLane="0" toLane="0"/>

    <connection from="-167557815" to="-5684415#5" fromLane="0" toLane="0"/>
    <connection from="-167557815" to="167557815" fromLane="0" toLane="0"/>

    <connection from="-167557816#0" to="-167557815" fromLane="0" toLane="0"/>
    <connection from="-167557816#0" to="167557816#0" fromLane="0" toLane="0"/>

    <connection from="-167557816#1" to="-167557816#0" fromLane="0" toLane="0"/>
    <connection from="-167557816#1" to="5642657#0" fromLane="0" toLane="0"/>
    <connection from="-167557816#1" to="167557816#1" fromLane="0" toLane="0"/>

    <connection from="-167557816#2" to="-167557816#1" fromLane="0" toLane="0"/>
    <connection from="-167557816#2" to="317762425#1" fromLane="0" toLane="0"/>
    <connection from="-167557816#2" to="167557816#2" fromLane="0" toLane="0"/>

    <connection from="-167557816#3" to="5587215#1" fromLane="0" toLane="0"/>
    <connection from="-167557816#3" to="-167557816#2" fromLane="0" toLane="0"/>
    <connection from="-167557816#3" to="167557816#3" fromLane="0" toLane="0"/>

    <connection from="-167557816#4" to="-167557816#3" fromLane="0" toLane="0"/>
    <connection from="-167557816#4" to="436786809" fromLane="0" toLane="1"/>
    <connection from="-167557816#4" to="167557816#4" fromLane="0" toLane="0"/>

    <connection from="-216975369#0" to="216975382#0" fromLane="0" toLane="0"/>
    <connection from="-216975369#0" to="216975369#0" fromLane="0" toLane="0"/>

    <connection from="-216975369#1" to="-216975372" fromLane="0" toLane="0"/>
    <connection from="-216975369#1" to="-216975369#0" fromLane="0" toLane="0"/>
    <connection from="-216975369#1" to="216975369#1" fromLane="0" toLane="0"/>

    <connection from="-216975369#2" to="-216975382#1" fromLane="0" toLane="0"/>
    <connection from="-216975369#2" to="-216975369#1" fromLane="0" toLane="0"/>
    <connection from="-216975369#2" to="216975369#2" fromLane="0" toLane="0"/>

    <connection from="-216975372" to="216975382#1" fromLane="0" toLane="0"/>
    <connection from="-216975372" to="-216975382#0" fromLane="0" toLane="0"/>
    <connection from="-216975372" to="216975372" fromLane="0" toLane="0"/>

    <connection from="-216975375" to="216975375" fromLane="0" toLane="0"/>

    <connection from="-216975382#0" to="216975369#0" fromLane="0" toLane="0"/>
    <connection from="-216975382#0" to="216975382#0" fromLane="0" toLane="0"/>

    <connection from="-216975382#1" to="-216975382#0" fromLane="0" toLane="0"/>
    <connection from="-216975382#1" to="216975372" fromLane="0" toLane="0"/>
    <connection from="-216975382#1" to="216975382#1" fromLane="0" toLane="0"/>

    <connection from="-228150766#0" to="437356146" fromLane="0" toLane="0"/>
    <connection from="-228150766#0" to="437356146" fromLane="1" toLane="1"/>
    <connection from="-228150766#0" to="228150766#0" fromLane="2" toLane="1"/>

    <connection from="-228150766#1" to="-228150766#0" fromLane="0" toLane="0"/>
    <connection from="-228150766#1" to="-228150766#0" fromLane="1" toLane="1"/>
    <connection from="-228150766#1" to="-228150766#0" fromLane="2" toLane="2"/>
    <connection from="-228150766#1" to="-5619864#2" fromLane="2" toLane="0"/>
    <connection from="-228150766#1" to="228150766#1" fromLane="2" toLane="1"/>

    <connection from="-228150766#2" to="-228150766#1" fromLane="0" toLane="0"/>
    <connection from="-228150766#2" to="-228150766#1" fromLane="1" toLane="1"/>
    <connection from="-228150766#2" to="-228150766#1" fromLane="2" toLane="2"/>
    <connection from="-228150766#2" to="228150766#2" fromLane="2" toLane="1"/>

    <connection from="-240233418" to="240233451#3" fromLane="0" toLane="0"/>
    <connection from="-240233418" to="240233418" fromLane="0" toLane="0"/>

    <connection from="-240233462#0" to="240233439#0" fromLane="0" toLane="0"/>
    <connection from="-240233462#0" to="240233462#0" fromLane="0" toLane="0"/>

    <connection from="-240233462#1" to="-5573149#0" fromLane="0" toLane="0"/>
    <connection from="-240233462#1" to="-240233462#0" fromLane="0" toLane="0"/>
    <connection from="-240233462#1" to="5573149#1" fromLane="0" toLane="0"/>
    <connection from="-240233462#1" to="240233462#1" fromLane="0" toLane="0"/>

    <connection from="-240233463#0" to="240233441#1" fromLane="0" toLane="0"/>
    <connection from="-240233463#0" to="240233463#0" fromLane="0" toLane="0"/>

    <connection from="-240233463#1" to="-5573149#1" fromLane="0" toLane="0"/>
    <connection from="-240233463#1" to="-240233463#0" fromLane="0" toLane="0"/>
    <connection from="-240233463#1" to="5573149#2" fromLane="0" toLane="0"/>
    <connection from="-240233463#1" to="240233463#1" fromLane="0" toLane="0"/>

    <connection from="-28630729" to="-5622516" fromLane="0" toLane="0"/>
    <connection from="-28630729" to="28630729" fromLane="0" toLane="0"/>

    <connection from="-28630826" to="5622680#1" fromLane="0" toLane="0"/>
    <connection from="-28630826" to="-5622680#0" fromLane="0" toLane="0"/>
    <connection from="-28630826" to="28630826" fromLane="0" toLane="0"/>

    <connection from="-28630986#0" to="5635009#1" fromLane="0" toLane="0"/>
    <connection from="-28630986#0" to="-5635009#0" fromLane="0" toLane="0"/>
    <connection from="-28630986#0" to="28630986#0" fromLane="0" toLane="0"/>

    <connection from="-28630986#1" to="-5601318" fromLane="0" toLane="0"/>
    <connection from="-28630986#1" to="-28630986#0" fromLane="0" toLane="0"/>
    <connection from="-28630986#1" to="28630986#1" fromLane="0" toLane="0"/>

    <connection from="-28631097#0" to="-5635347#2" fromLane="0" toLane="0"/>
    <connection from="-28631097#0" to="28631097#0" fromLane="0" toLane="0"/>

    <connection from="-28631097#1" to="-28631097#0" fromLane="0" toLane="0"/>
    <connection from="-28631097#1" to="-5690658" fromLane="0" toLane="0"/>
    <connection from="-28631097#1" to="28631097#1" fromLane="0" toLane="0"/>

    <connection from="-28631097#2" to="-28631097#1" fromLane="0" toLane="0"/>
    <connection from="-28631097#2" to="-216975375" fromLane="0" toLane="0"/>
    <connection from="-28631097#2" to="28631097#2" fromLane="0" toLane="0"/>

    <connection from="-28631097#3" to="-5594147#4" fromLane="0" toLane="0"/>
    <connection from="-28631097#3" to="-28631097#2" fromLane="0" toLane="0"/>
    <connection from="-28631097#3" to="28631097#3" fromLane="0" toLane="0"/>

    <connection from="-28711269" to="28711269" fromLane="0" toLane="0"/>

    <connection from="-28713007#5" to="-28711269" fromLane="0" toLane="0"/>
    <connection from="-28713007#5" to="28713007#5" fromLane="0" toLane="0"/>

    <connection from="-28713007#6" to="436799412#2" fromLane="0" toLane="0"/>
    <connection from="-28713007#6" to="-28713007#5" fromLane="0" toLane="0"/>
    <connection from="-28713007#6" to="-436799412#1" fromLane="0" toLane="2"/>
    <connection from="-28713007#6" to="28713007#6" fromLane="0" toLane="0"/>

    <connection from="-28713007#7" to="-28713007#6" fromLane="0" toLane="0"/>
    <connection from="-28713007#7" to="-5630791" fromLane="0" toLane="0"/>
    <connection from="-28713007#7" to="28713007#7" fromLane="0" toLane="0"/>

    <connection from="-28713007#8" to="-28900881#3" fromLane="0" toLane="0"/>
    <connection from="-28713007#8" to="-28713007#7" fromLane="0" toLane="0"/>
    <connection from="-28713007#8" to="28900881#4" fromLane="0" toLane="0"/>
    <connection from="-28713007#8" to="28713007#8" fromLane="0" toLane="0"/>

    <connection from="-28713007#9" to="5639934#4" fromLane="0" toLane="0"/>
    <connection from="-28713007#9" to="-28713007#8" fromLane="0" toLane="0"/>
    <connection from="-28713007#9" to="-5639934#3" fromLane="0" toLane="0"/>
    <connection from="-28713007#9" to="28713007#9" fromLane="0" toLane="0"/>

    <connection from="-28715796" to="-5691995#0" fromLane="0" toLane="0"/>
    <connection from="-28715796" to="5691995#1" fromLane="0" toLane="0"/>
    <connection from="-28715796" to="28715796" fromLane="0" toLane="0"/>

    <connection from="-28715797" to="28715797" fromLane="0" toLane="0"/>

    <connection from="-28715927#0" to="-5576801" fromLane="0" toLane="0"/>
    <connection from="-28715927#0" to="28715927#0" fromLane="0" toLane="0"/>

    <connection from="-28715927#1" to="-5563612#3" fromLane="0" toLane="0"/>
    <connection from="-28715927#1" to="-28715927#0" fromLane="0" toLane="0"/>
    <connection from="-28715927#1" to="28715927#1" fromLane="0" toLane="0"/>

    <connection from="-28716335" to="-545996672" fromLane="0" toLane="0"/>
    <connection from="-28716335" to="543046037" fromLane="0" toLane="0"/>
    <connection from="-28716335" to="28716335" fromLane="0" toLane="0"/>

    <connection from="-28716352#0" to="5619856#4" fromLane="0" toLane="0"/>
    <connection from="-28716352#0" to="-5619856#3" fromLane="0" toLane="0"/>
    <connection from="-28716352#0" to="28716352#0" fromLane="0" toLane="0"/>

    <connection from="-28716352#1" to="5691995#0" fromLane="0" toLane="0"/>
    <connection from="-28716352#1" to="-28716352#0" fromLane="0" toLane="0"/>
    <connection from="-28716352#1" to="28716352#1" fromLane="0" toLane="0"/>

    <connection from="-28716352#2" to="-5667054#2" fromLane="0" toLane="0"/>
    <connection from="-28716352#2" to="-28716352#1" fromLane="0" toLane="0"/>
    <connection from="-28716352#2" to="28716352#2" fromLane="0" toLane="0"/>

    <connection from="-28716352#3" to="-28716352#2" fromLane="0" toLane="0"/>
    <connection from="-28716352#3" to="436790437#1" fromLane="0" toLane="2"/>
    <connection from="-28716352#3" to="28716352#3" fromLane="0" toLane="0"/>

    <connection from="-28725576#0" to="28725576#0" fromLane="0" toLane="0"/>

    <connection from="-28725576#1" to="-28725576#0" fromLane="0" toLane="0"/>
    <connection from="-28725576#1" to="436799405" fromLane="0" toLane="1"/>
    <connection from="-28725576#1" to="28725576#1" fromLane="0" toLane="0"/>

    <connection from="-28730788" to="5657894#1" fromLane="0" toLane="0"/>
    <connection from="-28730788" to="-5657894#0" fromLane="0" toLane="0"/>
    <connection from="-28730788" to="28730788" fromLane="0" toLane="0"/>

    <connection from="-28731411" to="-5690142" fromLane="0" toLane="0"/>
    <connection from="-28731411" to="28731411" fromLane="0" toLane="0"/>

    <connection from="-28731653" to="-5677683#0" fromLane="0" toLane="0"/>
    <connection from="-28731653" to="5677683#1" fromLane="0" toLane="0"/>
    <connection from="-28731653" to="28731653" fromLane="0" toLane="0"/>

    <connection from="-28737849" to="5607319#2" fromLane="0" toLane="0"/>
    <connection from="-28737849" to="-5607319#1" fromLane="0" toLane="0"/>
    <connection from="-28737849" to="28737849" fromLane="0" toLane="0"/>

    <connection from="-28737866#0" to="5659263" fromLane="0" toLane="0"/>
    <connection from="-28737866#0" to="28737866#0" fromLane="0" toLane="0"/>

    <connection from="-28737866#1" to="-5640917" fromLane="0" toLane="0"/>
    <connection from="-28737866#1" to="-28737866#0" fromLane="0" toLane="0"/>
    <connection from="-28737866#1" to="-28737849" fromLane="0" toLane="0"/>
    <connection from="-28737866#1" to="28737866#1" fromLane="0" toLane="0"/>

    <connection from="-28737919" to="-5628862#0" fromLane="0" toLane="0"/>
    <connection from="-28737919" to="5628862#1" fromLane="0" toLane="0"/>
    <connection from="-28737919" to="28737919" fromLane="0" toLane="0"/>

    <connection from="-28864306#1" to="-5635426#0" fromLane="0" toLane="0"/>
    <connection from="-28864306#1" to="28864306#1" fromLane="0" toLane="0"/>

    <connection from="-28884176#0" to="28902477" fromLane="0" toLane="0"/>
    <connection from="-28884176#0" to="-529678943#1" fromLane="0" toLane="0"/>
    <connection from="-28884176#0" to="-529678943#1" fromLane="1" toLane="1"/>
    <connection from="-28884176#0" to="28884176#0" fromLane="2" toLane="1"/>

    <connection from="-28884176#1" to="-28884176#0" fromLane="0" toLane="0"/>
    <connection from="-28884176#1" to="-28884176#0" fromLane="1" toLane="1"/>
    <connection from="-28884176#1" to="-28884176#0" fromLane="2" toLane="2"/>
    <connection from="-28884176#1" to="28884176#1" fromLane="2" toLane="1"/>

    <connection from="-28884176#2" to="5637996#3" fromLane="0" toLane="0"/>
    <connection from="-28884176#2" to="-28884176#1" fromLane="0" toLane="0"/>
    <connection from="-28884176#2" to="-28884176#1" fromLane="1" toLane="1"/>
    <connection from="-28884176#2" to="-28884176#1" fromLane="2" toLane="2"/>
    <connection from="-28884176#2" to="28884176#2" fromLane="2" toLane="1"/>

    <connection from="-28884176#3" to="-28884176#2" fromLane="0" toLane="0"/>
    <connection from="-28884176#3" to="-28884176#2" fromLane="1" toLane="1"/>
    <connection from="-28884176#3" to="-28884176#2" fromLane="2" toLane="2"/>
    <connection from="-28884176#3" to="28884176#3" fromLane="2" toLane="1"/>

    <connection from="-28900881#0" to="-5640725" fromLane="0" toLane="0"/>
    <connection from="-28900881#0" to="28900881#0" fromLane="0" toLane="0"/>

    <connection from="-28900881#1" to="-5669234#3" fromLane="0" toLane="0"/>
    <connection from="-28900881#1" to="-28900881#0" fromLane="0" toLane="0"/>
    <connection from="-28900881#1" to="28900881#1" fromLane="0" toLane="0"/>

    <connection from="-28900881#2" to="-5669937#0" fromLane="0" toLane="0"/>
    <connection from="-28900881#2" to="-28900881#1" fromLane="0" toLane="0"/>
    <connection from="-28900881#2" to="5669937#1" fromLane="0" toLane="0"/>
    <connection from="-28900881#2" to="28900881#2" fromLane="0" toLane="0"/>

    <connection from="-28900881#3" to="5635431" fromLane="0" toLane="0"/>
    <connection from="-28900881#3" to="-28900881#2" fromLane="0" toLane="0"/>
    <connection from="-28900881#3" to="28900881#3" fromLane="0" toLane="0"/>

    <connection from="-28900881#4" to="28713007#8" fromLane="0" toLane="0"/>
    <connection from="-28900881#4" to="-28900881#3" fromLane="0" toLane="0"/>
    <connection from="-28900881#4" to="-28713007#7" fromLane="0" toLane="0"/>
    <connection from="-28900881#4" to="28900881#4" fromLane="0" toLane="0"/>

    <connection from="-28900881#5" to="-28900881#4" fromLane="0" toLane="0"/>
    <connection from="-28900881#5" to="5605624" fromLane="0" toLane="0"/>
    <connection from="-28900881#5" to="28900881#5" fromLane="0" toLane="0"/>

    <connection from="-28900881#6" to="5685159#0" fromLane="0" toLane="0"/>
    <connection from="-28900881#6" to="-28900881#5" fromLane="0" toLane="0"/>
    <connection from="-28900881#6" to="28900881#6" fromLane="0" toLane="0"/>

    <connection from="-28902477" to="-529678943#1" fromLane="0" toLane="0"/>
    <connection from="-28902477" to="28884176#0" fromLane="0" toLane="1"/>
    <connection from="-28902477" to="28902477" fromLane="0" toLane="0"/>

    <connection from="-318514082#0" to="199291601#1" fromLane="0" toLane="0"/>
    <connection from="-318514082#0" to="318514082#0" fromLane="0" toLane="0"/>

    <connection from="-326364340#0" to="-529678940" fromLane="0" toLane="0"/>
    <connection from="-326364340#0" to="-529678940" fromLane="1" toLane="1"/>
    <connection from="-326364340#0" to="326364340#0" fromLane="2" toLane="1"/>

    <connection from="-326364340#1" to="5655267#2" fromLane="0" toLane="0"/>
    <connection from="-326364340#1" to="-326364340#0" fromLane="0" toLane="0"/>
    <connection from="-326364340#1" to="-326364340#0" fromLane="1" toLane="1"/>
    <connection from="-326364340#1" to="-326364340#0" fromLane="2" toLane="2"/>
    <connection from="-326364340#1" to="326364340#1" fromLane="2" toLane="1"/>

    <connection from="-326364340#2" to="-326364340#1" fromLane="0" toLane="0"/>
    <connection from="-326364340#2" to="-326364340#1" fromLane="1" toLane="1"/>
    <connection from="-326364340#2" to="-326364340#1" fromLane="2" toLane="2"/>
    <connection from="-326364340#2" to="326364340#2" fromLane="2" toLane="1"/>

    <connection from="-326364340#3" to="5598005#0" fromLane="0" toLane="0"/>
    <connection from="-326364340#3" to="-326364340#2" fromLane="0" toLane="0"/>
    <connection from="-326364340#3" to="-326364340#2" fromLane="1" toLane="1"/>
    <connection from="-326364340#3" to="-326364340#2" fromLane="2" toLane="2"/>
    <connection from="-326364340#3" to="326364340#3" fromLane="2" toLane="1"/>

    <connection from="-32705099#0" to="-543046037" fromLane="0" toLane="0"/>
    <connection from="-32705099#0" to="32705099#0" fromLane="0" toLane="0"/>

    <connection from="-32705099#1" to="5630687#2" fromLane="0" toLane="0"/>
    <connection from="-32705099#1" to="-32705099#0" fromLane="0" toLane="0"/>
    <connection from="-32705099#1" to="-5630687#1" fromLane="0" toLane="0"/>
    <connection from="-32705099#1" to="32705099#1" fromLane="0" toLane="0"/>

    <connection from="-34108713" to="-537765058" fromLane="0" toLane="0"/>
    <connection from="-34108713" to="34108713" fromLane="0" toLane="1"/>

    <connection from="-34108714" to="-537765056#1" fromLane="0" toLane="0"/>
    <connection from="-34108714" to="5640736" fromLane="0" toLane="0"/>
    <connection from="-34108714" to="34108714" fromLane="0" toLane="0"/>

    <connection from="-34108916" to="436790276" fromLane="0" toLane="1"/>
    <connection from="-34108916" to="34108916" fromLane="0" toLane="0"/>

    <connection from="-34110049#0" to="436786906" fromLane="0" toLane="0"/>
    <connection from="-34110049#0" to="-545477322" fromLane="0" toLane="0"/>
    <connection from="-34110049#0" to="34110049#0" fromLane="0" toLane="0"/>

    <connection from="-34110049#1" to="5667059#0" fromLane="0" toLane="0"/>
    <connection from="-34110049#1" to="-34110049#0" fromLane="0" toLane="0"/>
    <connection from="-34110049#1" to="34110049#1" fromLane="0" toLane="0"/>

    <connection from="-34110049#2" to="-34110049#1" fromLane="0" toLane="0"/>
    <connection from="-34110049#2" to="-5692020#1" fromLane="0" toLane="0"/>
    <connection from="-34110049#2" to="34110049#2" fromLane="0" toLane="0"/>

    <connection from="-34110049#3" to="5692018#0" fromLane="0" toLane="0"/>
    <connection from="-34110049#3" to="-34110049#2" fromLane="0" toLane="0"/>
    <connection from="-34110049#3" to="34110049#3" fromLane="0" toLane="0"/>

    <connection from="-34110049#4" to="-34110049#3" fromLane="0" toLane="0"/>
    <connection from="-34110049#4" to="5604755#0" fromLane="0" toLane="0"/>
    <connection from="-34110049#4" to="34110049#4" fromLane="0" toLane="0"/>

    <connection from="-350922552" to="-5684415#0" fromLane="0" toLane="0"/>
    <connection from="-350922552" to="5684415#1" fromLane="0" toLane="0"/>
    <connection from="-350922552" to="350922552" fromLane="0" toLane="0"/>

    <connection from="-350922561" to="-5684415#1" fromLane="0" toLane="0"/>
    <connection from="-350922561" to="5684415#2" fromLane="0" toLane="0"/>
    <connection from="-350922561" to="350922561" fromLane="0" toLane="0"/>

    <connection from="-351681555" to="-5647676#1" fromLane="0" toLane="0"/>
    <connection from="-351681555" to="5600987" fromLane="0" toLane="0"/>
    <connection from="-351681555" to="351681555" fromLane="0" toLane="0"/>

    <connection from="-352666180" to="436786817#1" fromLane="0" toLane="0"/>
    <connection from="-352666180" to="352666180" fromLane="0" toLane="0"/>

    <connection from="-380555209" to="380555209" fromLane="0" toLane="0"/>

    <connection from="-380555211" to="5604809#0" fromLane="0" toLane="0"/>
    <connection from="-380555211" to="380555211" fromLane="0" toLane="0"/>

    <connection from="-380555212#0" to="5669753#0" fromLane="0" toLane="0"/>
    <connection from="-380555212#0" to="380555212#0" fromLane="0" toLane="0"/>

    <connection from="-380555212#1" to="-5678837#2" fromLane="0" toLane="0"/>
    <connection from="-380555212#1" to="-380555212#0" fromLane="0" toLane="0"/>
    <connection from="-380555212#1" to="380555212#1" fromLane="0" toLane="0"/>

    <connection from="-380555218" to="5608462#2" fromLane="0" toLane="0"/>
    <connection from="-380555218" to="-5608462#1" fromLane="0" toLane="0"/>
    <connection from="-380555218" to="380555218" fromLane="0" toLane="0"/>

    <connection from="-380557557" to="-5604755#1" fromLane="0" toLane="0"/>
    <connection from="-380557557" to="380557557" fromLane="0" toLane="0"/>

    <connection from="-381424955#0" to="5684533" fromLane="0" toLane="0"/>
    <connection from="-381424955#0" to="-381424960" fromLane="0" toLane="0"/>
    <connection from="-381424955#0" to="5647506" fromLane="0" toLane="0"/>
    <connection from="-381424955#0" to="381424955#0" fromLane="0" toLane="0"/>

    <connection from="-381424955#1" to="5631969#0" fromLane="0" toLane="0"/>
    <connection from="-381424955#1" to="-381424955#0" fromLane="0" toLane="0"/>
    <connection from="-381424955#1" to="381424955#1" fromLane="0" toLane="0"/>

    <connection from="-381424955#2" to="-381424955#1" fromLane="0" toLane="0"/>
    <connection from="-381424955#2" to="-5633499" fromLane="0" toLane="0"/>
    <connection from="-381424955#2" to="381424955#2" fromLane="0" toLane="0"/>

    <connection from="-381424955#3" to="5637987#0" fromLane="0" toLane="0"/>
    <connection from="-381424955#3" to="-381424955#2" fromLane="0" toLane="0"/>
    <connection from="-381424955#3" to="381424955#3" fromLane="0" toLane="0"/>

    <connection from="-381424955#4" to="-381424955#3" fromLane="0" toLane="0"/>
    <connection from="-381424955#4" to="-5638003" fromLane="0" toLane="0"/>
    <connection from="-381424955#4" to="381424955#4" fromLane="0" toLane="0"/>

    <connection from="-381424960" to="436799560#1" fromLane="0" toLane="0"/>
    <connection from="-381424960" to="-436799560#0" fromLane="0" toLane="1"/>
    <connection from="-381424960" to="-436799560#0" fromLane="0" toLane="2"/>
    <connection from="-381424960" to="-381424962" fromLane="0" toLane="0"/>

    <connection from="-381424962" to="5647506" fromLane="0" toLane="0"/>
    <connection from="-381424962" to="381424955#0" fromLane="0" toLane="0"/>
    <connection from="-381424962" to="5684533" fromLane="0" toLane="0"/>
    <connection from="-381424962" to="-381424960" fromLane="0" toLane="0"/>

    <connection from="-390014441" to="-5691509#10" fromLane="0" toLane="0"/>
    <connection from="-390014441" to="5691509#11" fromLane="0" toLane="0"/>
    <connection from="-390014441" to="390014441" fromLane="0" toLane="0"/>

    <connection from="-391846966#0" to="391846968#0" fromLane="0" toLane="0"/>
    <connection from="-391846966#0" to="391846966#0" fromLane="0" toLane="0"/>

    <connection from="-391846966#1" to="-5594148#4" fromLane="0" toLane="0"/>
    <connection from="-391846966#1" to="-391846966#0" fromLane="0" toLane="0"/>
    <connection from="-391846966#1" to="391846966#1" fromLane="0" toLane="0"/>

    <connection from="-391846966#2" to="-391846966#1" fromLane="0" toLane="0"/>
    <connection from="-391846966#2" to="5690658" fromLane="0" toLane="0"/>
    <connection from="-391846966#2" to="391846966#2" fromLane="0" toLane="0"/>

    <connection from="-391846966#3" to="-5693186#1" fromLane="0" toLane="0"/>
    <connection from="-391846966#3" to="-391846966#2" fromLane="0" toLane="0"/>
    <connection from="-391846966#3" to="391846966#3" fromLane="0" toLane="0"/>

    <connection from="-391846966#4" to="-380555211" fromLane="0" toLane="0"/>
    <connection from="-391846966#4" to="-391846966#3" fromLane="0" toLane="0"/>
    <connection from="-391846966#4" to="391846966#4" fromLane="0" toLane="0"/>

    <connection from="-391846966#5" to="-5678837#1" fromLane="0" toLane="0"/>
    <connection from="-391846966#5" to="-391846966#4" fromLane="0" toLane="0"/>
    <connection from="-391846966#5" to="5678837#2" fromLane="0" toLane="0"/>
    <connection from="-391846966#5" to="391846966#5" fromLane="0" toLane="0"/>

    <connection from="-391846966#6" to="5666009" fromLane="0" toLane="0"/>
    <connection from="-391846966#6" to="-391846966#5" fromLane="0" toLane="0"/>
    <connection from="-391846966#6" to="391846966#6" fromLane="0" toLane="0"/>

    <connection from="-391846966#7" to="-391846966#6" fromLane="0" toLane="0"/>
    <connection from="-391846966#7" to="-5603019#1" fromLane="0" toLane="0"/>
    <connection from="-391846966#7" to="391846966#7" fromLane="0" toLane="0"/>

    <connection from="-391847010#0" to="-529875454" fromLane="0" toLane="0"/>
    <connection from="-391847010#0" to="-529875454" fromLane="1" toLane="1"/>
    <connection from="-391847010#0" to="391847010#0" fromLane="3" toLane="1"/>

    <connection from="-391847010#1" to="-391847010#0" fromLane="0" toLane="0"/>
    <connection from="-391847010#1" to="-391847010#0" fromLane="1" toLane="1"/>
    <connection from="-391847010#1" to="-391847010#0" fromLane="2" toLane="2"/>
    <connection from="-391847010#1" to="-391847010#0" fromLane="3" toLane="3"/>
    <connection from="-391847010#1" to="5619856#0" fromLane="3" toLane="0"/>
    <connection from="-391847010#1" to="391847010#1" fromLane="3" toLane="1"/>

    <connection from="-436790313" to="391847011" fromLane="0" toLane="0"/>
    <connection from="-436790313" to="391847011" fromLane="1" toLane="1"/>
    <connection from="-436790313" to="391847011" fromLane="2" toLane="2"/>
    <connection from="-436790313" to="391847011" fromLane="3" toLane="3"/>
    <connection from="-436790313" to="436790313" fromLane="3" toLane="1"/>

    <connection from="-436799392#0" to="-436799394" fromLane="0" toLane="0"/>
    <connection from="-436799392#0" to="-436799394" fromLane="1" toLane="1"/>
    <connection from="-436799392#0" to="-436799394" fromLane="2" toLane="2"/>
    <connection from="-436799392#0" to="-436799394" fromLane="2" toLane="3"/>
    <connection from="-436799392#0" to="436799392#0" fromLane="2" toLane="1"/>

    <connection from="-436799392#1" to="-28900881#6" fromLane="0" toLane="0"/>
    <connection from="-436799392#1" to="-436799392#0" fromLane="0" toLane="0"/>
    <connection from="-436799392#1" to="-436799392#0" fromLane="1" toLane="1"/>
    <connection from="-436799392#1" to="-436799392#0" fromLane="2" toLane="2"/>
    <connection from="-436799392#1" to="436799392#1" fromLane="2" toLane="1"/>

    <connection from="-436799392#2" to="5639934#0" fromLane="0" toLane="0"/>
    <connection from="-436799392#2" to="-436799392#1" fromLane="0" toLane="0"/>
    <connection from="-436799392#2" to="-436799392#1" fromLane="1" toLane="1"/>
    <connection from="-436799392#2" to="-436799392#1" fromLane="2" toLane="2"/>
    <connection from="-436799392#2" to="436799392#2" fromLane="2" toLane="1"/>

    <connection from="-436799392#3" to="5573149#0" fromLane="0" toLane="0"/>
    <connection from="-436799392#3" to="-436799392#2" fromLane="0" toLane="0"/>
    <connection from="-436799392#3" to="-436799392#2" fromLane="1" toLane="1"/>
    <connection from="-436799392#3" to="-436799392#2" fromLane="2" toLane="2"/>
    <connection from="-436799392#3" to="436799392#3" fromLane="2" toLane="1"/>

    <connection from="-436799392#4" to="546253631" fromLane="0" toLane="0"/>
    <connection from="-436799392#4" to="-436799392#3" fromLane="0" toLane="0"/>
    <connection from="-436799392#4" to="-436799392#3" fromLane="1" toLane="1"/>
    <connection from="-436799392#4" to="-436799392#3" fromLane="2" toLane="2"/>
    <connection from="-436799392#4" to="436799392#4" fromLane="2" toLane="1"/>

    <connection from="-436799392#5" to="-436799392#4" fromLane="0" toLane="0"/>
    <connection from="-436799392#5" to="-436799392#4" fromLane="1" toLane="1"/>
    <connection from="-436799392#5" to="-436799392#4" fromLane="2" toLane="2"/>
    <connection from="-436799392#5" to="436799392#5" fromLane="2" toLane="1"/>

    <connection from="-436799392#6" to="5631355#0" fromLane="0" toLane="0"/>
    <connection from="-436799392#6" to="-436799392#5" fromLane="0" toLane="0"/>