<?xml version="1.0" encoding="UTF-8"?>

<!-- generated on 6/25/2018 5:26:12 PM by Netedit Version 0.32.0
<?xml version="1.0" encoding="UTF-8"?>

<configuration xmlns:xsi="http://www.w3.org/2001/XMLSchema-instance" xsi:noNamespaceSchemaLocation="http://sumo.dlr.de/xsd/netconvertConfiguration.xsd">

    <input>
        <sumo-net-file value="C:\Users\abeld\Downloads\Intersection\DiamondSliplanes\DiamondSlip.net.xml"/>
    </input>

    <output>
        <output-file value="C:\Users\abeld\Downloads\Intersection\DiamondSliplanes\DiamondSlip.net.xml"/>
        <plain-output-prefix value="C:\Users\abeld\Downloads\Intersection\DiamondSliplanes\DiamondSlip"/>
    </output>

    <processing>
        <no-turnarounds value="true"/>
        <offset.disable-normalization value="true"/>
        <lefthand value="false"/>
        <junctions.corner-detail value="0"/>
        <rectangular-lane-cut value="false"/>
        <walkingareas value="false"/>
    </processing>

</configuration>
-->

<connections version="0.27" xmlns:xsi="http://www.w3.org/2001/XMLSchema-instance" xsi:noNamespaceSchemaLocation="http://sumo.dlr.de/xsd/connections_file.xsd">
    <connection from="Eeast1" to="gneE403" fromLane="0" toLane="0"/>
    <connection from="Eeast1" to="gneE96" fromLane="0" toLane="0"/>

    <connection from="Eeast2" to="gneE406" fromLane="0" toLane="0"/>
    <connection from="Eeast2" to="gneE97" fromLane="0" toLane="0"/>
    <connection from="Eeast2" to="gneE404" fromLane="0" toLane="0"/>

    <connection from="Eeast3" to="gneE98" fromLane="0" toLane="0"/>
    <connection from="Eeast3" to="gneE405" fromLane="0" toLane="0"/>

    <connection from="Enorth1" to="gneE173" fromLane="0" toLane="0"/>
    <connection from="Enorth1" to="gneE148" fromLane="0" toLane="0"/>

    <connection from="Enorth2" to="gneE171" fromLane="0" toLane="0"/>
    <connection from="Enorth2" to="gneE149" fromLane="0" toLane="0"/>
    <connection from="Enorth2" to="gneE172" fromLane="0" toLane="0"/>

    <connection from="Enorth3" to="gneE150" fromLane="0" toLane="0"/>
    <connection from="Enorth3" to="gneE170" fromLane="0" toLane="0"/>

    <connection from="Esouth1" to="gneE204" fromLane="0" toLane="0"/>
    <connection from="Esouth1" to="gneE165" fromLane="0" toLane="0"/>
    <connection from="Esouth1" to="gneE157" fromLane="0" toLane="0"/>

    <connection from="Esouth2" to="gneE163" fromLane="0" toLane="0"/>
    <connection from="Esouth2" to="gneE156" fromLane="0" toLane="0"/>
    <connection from="Esouth2" to="gneE164" fromLane="0" toLane="0"/>

    <connection from="Esouth3" to="gneE155" fromLane="0" toLane="0"/>
    <connection from="Esouth3" to="gneE162" fromLane="0" toLane="0"/>
    <connection from="Esouth3" to="gneE205" fromLane="0" toLane="0"/>

    <connection from="Ewest1" to="gneE166" fromLane="0" toLane="0"/>
    <connection from="Ewest1" to="gneE142" fromLane="0" toLane="0"/>

    <connection from="Ewest2" to="gneE168" fromLane="0" toLane="0"/>
    <connection from="Ewest2" to="gneE141" fromLane="0" toLane="0"/>
    <connection from="Ewest2" to="gneE167" fromLane="0" toLane="0"/>

    <connection from="Ewest3" to="gneE140" fromLane="0" toLane="0"/>
    <connection from="Ewest3" to="gneE169" fromLane="0" toLane="0"/>

    <connection from="Oeast1" to="gneE400" fromLane="0" toLane="0"/>
    <connection from="Oeast1" to="gneE191" fromLane="0" toLane="0"/>

    <connection from="Oeast2" to="gneE402" fromLane="0" toLane="0"/>
    <connection from="Oeast2" to="gneE190" fromLane="0" toLane="0"/>
    <connection from="Oeast2" to="gneE401" fromLane="0" toLane="0"/>

    <connection from="Oeast3" to="gneE189" fromLane="0" toLane="0"/>
    <connection from="Oeast3" to="gneE399" fromLane="0" toLane="0"/>

    <connection from="Onorth1" to="gneE180" fromLane="0" toLane="0"/>
    <connection from="Onorth1" to="gneE174" fromLane="0" toLane="0"/>

    <connection from="Onorth2" to="gneE178" fromLane="0" toLane="0"/>
    <connection from="Onorth2" to="gneE175" fromLane="0" toLane="0"/>
    <connection from="Onorth2" to="gneE179" fromLane="0" toLane="0"/>

    <connection from="Onorth3" to="gneE176" fromLane="0" toLane="0"/>
    <connection from="Onorth3" to="gneE177" fromLane="0" toLane="0"/>

    <connection from="Osouth1" to="gneE225" fromLane="0" toLane="0"/>
    <connection from="Osouth1" to="gneE202" fromLane="0" toLane="0"/>
    <connection from="Osouth1" to="gneE197" fromLane="0" toLane="0"/>

    <connection from="Osouth2" to="gneE201" fromLane="0" toLane="0"/>
    <connection from="Osouth2" to="gneE198" fromLane="0" toLane="0"/>
    <connection from="Osouth2" to="gneE203" fromLane="0" toLane="0"/>

    <connection from="Osouth3" to="gneE199" fromLane="0" toLane="0"/>
    <connection from="Osouth3" to="gneE200" fromLane="0" toLane="0"/>
    <connection from="Osouth3" to="gneE224" fromLane="0" toLane="0"/>

    <connection from="Owest1" to="gneE186" fromLane="0" toLane="0"/>
    <connection from="Owest1" to="gneE181" fromLane="0" toLane="0"/>

    <connection from="Owest2" to="gneE184" fromLane="0" toLane="0"/>
    <connection from="Owest2" to="gneE182" fromLane="0" toLane="0"/>
    <connection from="Owest2" to="gneE187" fromLane="0" toLane="0"/>

    <connection from="Owest3" to="gneE183" fromLane="0" toLane="0"/>
    <connection from="Owest3" to="gneE185" fromLane="0" toLane="0"/>

    <connection from="gneE103" to="gneE456" fromLane="0" toLane="0"/>

    <connection from="gneE104" to="gneE457" fromLane="0" toLane="0"/>

    <connection from="gneE106" to="gneE491" fromLane="0" toLane="0"/>
    <connection from="gneE106" to="gneE472" fromLane="0" toLane="0"/>
    <connection from="gneE106" to="gneE458" fromLane="0" toLane="0"/>

    <connection from="gneE140" to="gneE145" fromLane="0" toLane="0"/>

    <connection from="gneE141" to="gneE144" fromLane="0" toLane="0"/>

    <connection from="gneE142" to="gneE143" fromLane="0" toLane="0"/>

    <connection from="gneE143" to="gneE453" fromLane="0" toLane="0"/>

    <connection from="gneE144" to="gneE454" fromLane="0" toLane="0"/>

    <connection from="gneE145" to="gneE492" fromLane="0" toLane="0"/>
    <connection from="gneE145" to="gneE474" fromLane="0" toLane="0"/>
    <connection from="gneE145" to="gneE455" fromLane="0" toLane="0"/>

    <connection from="gneE148" to="gneE154" fromLane="0" toLane="0"/>

    <connection from="gneE149" to="gneE153" fromLane="0" toLane="0"/>

    <connection from="gneE150" to="gneE152" fromLane="0" toLane="0"/>

    <connection from="gneE152" to="gneE490" fromLane="0" toLane="0"/>
    <connection from="gneE152" to="gneE470" fromLane="0" toLane="0"/>

    <connection from="gneE153" to="gneE469" fromLane="0" toLane="0"/>

    <connection from="gneE154" to="gneE468" fromLane="0" toLane="0"/>

    <connection from="gneE155" to="gneE158" fromLane="0" toLane="0"/>

    <connection from="gneE156" to="gneE159" fromLane="0" toLane="0"/>

    <connection from="gneE157" to="gneE160" fromLane="0" toLane="0"/>

    <connection from="gneE158" to="gneE493" fromLane="0" toLane="0"/>
    <connection from="gneE158" to="gneE459" fromLane="0" toLane="0"/>

    <connection from="gneE159" to="gneE460" fromLane="0" toLane="0"/>

    <connection from="gneE160" to="gneE461" fromLane="0" toLane="0"/>

    <connection from="gneE162" to="gneE159" fromLane="0" toLane="0"/>

    <connection from="gneE163" to="gneE158" fromLane="0" toLane="0"/>

    <connection from="gneE164" to="gneE160" fromLane="0" toLane="0"/>

    <connection from="gneE165" to="gneE159" fromLane="0" toLane="0"/>

    <connection from="gneE166" to="gneE144" fromLane="0" toLane="0"/>

    <connection from="gneE167" to="gneE143" fromLane="0" toLane="0"/>

    <connection from="gneE168" to="gneE145" fromLane="0" toLane="0"/>

    <connection from="gneE169" to="gneE144" fromLane="0" toLane="0"/>

    <connection from="gneE170" to="gneE153" fromLane="0" toLane="0"/>

    <connection from="gneE171" to="gneE152" fromLane="0" toLane="0"/>

    <connection from="gneE172" to="gneE154" fromLane="0" toLane="0"/>

    <connection from="gneE173" to="gneE153" fromLane="0" toLane="0"/>

    <connection from="gneE174" to="gneE410" fromLane="0" toLane="0"/>

    <connection from="gneE175" to="gneE409" fromLane="0" toLane="0"/>

    <connection from="gneE176" to="gneE408" fromLane="0" toLane="0"/>

    <connection from="gneE177" to="gneE409" fromLane="0" toLane="0"/>

    <connection from="gneE178" to="gneE408" fromLane="0" toLane="0"/>

    <connection from="gneE179" to="gneE410" fromLane="0" toLane="0"/>

    <connection from="gneE180" to="gneE409" fromLane="0" toLane="0"/>

    <connection from="gneE181" to="gneE294" fromLane="0" toLane="0"/>

    <connection from="gneE182" to="gneE293" fromLane="0" toLane="0"/>

    <connection from="gneE183" to="gneE292" fromLane="0" toLane="0"/>

    <connection from="gneE184" to="gneE292" fromLane="0" toLane="0"/>

    <connection from="gneE185" to="gneE293" fromLane="0" toLane="0"/>

    <connection from="gneE186" to="gneE293" fromLane="0" toLane="0"/>

    <connection from="gneE187" to="gneE294" fromLane="0" toLane="0"/>

    <connection from="gneE189" to="gneE386" fromLane="0" toLane="0"/>

    <connection from="gneE190" to="gneE381" fromLane="0" toLane="0"/>

    <connection from="gneE191" to="gneE376" fromLane="0" toLane="0"/>

    <connection from="gneE197" to="gneE323" fromLane="0" toLane="0"/>

    <connection from="gneE198" to="gneE324" fromLane="0" toLane="0"/>

    <connection from="gneE199" to="gneE325" fromLane="0" toLane="0"/>

    <connection from="gneE200" to="gneE324" fromLane="0" toLane="0"/>

    <connection from="gneE201" to="gneE325" fromLane="0" toLane="0"/>

    <connection from="gneE202" to="gneE324" fromLane="0" toLane="0"/>

    <connection from="gneE203" to="gneE323" fromLane="0" toLane="0"/>

    <connection from="gneE204" to="gneE158" fromLane="0" toLane="0"/>

    <connection from="gneE205" to="gneE160" fromLane="0" toLane="0"/>

    <connection from="gneE224" to="gneE323" fromLane="0" toLane="0"/>

    <connection from="gneE225" to="gneE325" fromLane="0" toLane="0"/>

    <connection from="gneE226" to="Ewest1" fromLane="0" toLane="0"/>

    <connection from="gneE227" to="Ewest2" fromLane="0" toLane="0"/>

    <connection from="gneE228" to="Ewest3" fromLane="0" toLane="0"/>

    <connection from="gneE229" to="Ewest3" fromLane="0" toLane="0"/>

    <connection from="gneE230" to="Ewest1" fromLane="0" toLane="0"/>

    <connection from="gneE232" to="Ewest2" fromLane="0" toLane="0"/>

    <connection from="gneE234" to="Ewest2" fromLane="0" toLane="0"/>

    <connection from="gneE238" to="gneE232" fromLane="0" toLane="0"/>
    <connection from="gneE238" to="gneE226" fromLane="0" toLane="0"/>

    <connection from="gneE239" to="gneE229" fromLane="0" toLane="0"/>
    <connection from="gneE239" to="gneE227" fromLane="0" toLane="0"/>
    <connection from="gneE239" to="gneE230" fromLane="0" toLane="0"/>

    <connection from="gneE240" to="gneE228" fromLane="0" toLane="0"/>
    <connection from="gneE240" to="gneE234" fromLane="0" toLane="0"/>

    <connection from="gneE248" to="gneE238" fromLane="0" toLane="0"/>

    <connection from="gneE254" to="gneE239" fromLane="0" toLane="0"/>

    <connection from="gneE261" to="gneE240" fromLane="0" toLane="0"/>

    <connection from="gneE270" to="Esouth1" fromLane="0" toLane="0"/>

    <connection from="gneE271" to="Esouth2" fromLane="0" toLane="0"/>

    <connection from="gneE273" to="Esouth1" fromLane="0" toLane="0"/>

    <connection from="gneE274" to="Esouth2" fromLane="0" toLane="0"/>

    <connection from="gneE275" to="Esouth3" fromLane="0" toLane="0"/>

    <connection from="gneE277" to="Esouth2" fromLane="0" toLane="0"/>

    <connection from="gneE278" to="Esouth3" fromLane="0" toLane="0"/>

    <connection from="gneE279" to="gneE271" fromLane="0" toLane="0"/>
    <connection from="gneE279" to="gneE270" fromLane="0" toLane="0"/>

    <connection from="gneE280" to="gneE275" fromLane="0" toLane="0"/>
    <connection from="gneE280" to="gneE274" fromLane="0" toLane="0"/>
    <connection from="gneE280" to="gneE273" fromLane="0" toLane="0"/>

    <connection from="gneE282" to="gneE279" fromLane="0" toLane="0"/>

    <connection from="gneE283" to="gneE280" fromLane="0" toLane="0"/>

    <connection from="gneE285" to="gneE279" fromLane="0" toLane="0"/>

    <connection from="gneE286" to="gneE280" fromLane="0" toLane="0"/>

    <connection from="gneE289" to="gneE280" fromLane="0" toLane="0"/>

    <connection from="gneE292" to="gneE295" fromLane="0" toLane="0"/>
    <connection from="gneE292" to="gneE308" fromLane="0" toLane="0"/>

    <connection from="gneE293" to="gneE309" fromLane="0" toLane="0"/>
    <connection from="gneE293" to="gneE296" fromLane="0" toLane="0"/>
    <connection from="gneE293" to="gneE311" fromLane="0" toLane="0"/>

    <connection from="gneE294" to="gneE310" fromLane="0" toLane="0"/>
    <connection from="gneE294" to="gneE297" fromLane="0" toLane="0"/>

    <connection from="gneE295" to="gneE300" fromLane="0" toLane="0"/>

    <connection from="gneE296" to="gneE299" fromLane="0" toLane="0"/>

    <connection from="gneE297" to="gneE298" fromLane="0" toLane="0"/>

    <connection from="gneE298" to="gneE318" fromLane="0" toLane="0"/>
    <connection from="gneE298" to="gneE303" fromLane="0" toLane="0"/>

    <connection from="gneE299" to="gneE316" fromLane="0" toLane="0"/>
    <connection from="gneE299" to="gneE302" fromLane="0" toLane="0"/>
    <connection from="gneE299" to="gneE317" fromLane="0" toLane="0"/>

    <connection from="gneE300" to="gneE301" fromLane="0" toLane="0"/>
    <connection from="gneE300" to="gneE315" fromLane="0" toLane="0"/>

    <connection from="gneE301" to="gneE350" fromLane="0" toLane="0"/>

    <connection from="gneE302" to="gneE351" fromLane="0" toLane="0"/>

    <connection from="gneE303" to="gneE352" fromLane="0" toLane="0"/>

    <connection from="gneE304" to="gneE239" fromLane="0" toLane="0"/>

    <connection from="gneE305" to="gneE238" fromLane="0" toLane="0"/>

    <connection from="gneE306" to="gneE239" fromLane="0" toLane="0"/>

    <connection from="gneE307" to="gneE240" fromLane="0" toLane="0"/>

    <connection from="gneE308" to="gneE299" fromLane="0" toLane="0"/>

    <connection from="gneE309" to="gneE300" fromLane="0" toLane="0"/>

    <connection from="gneE310" to="gneE299" fromLane="0" toLane="0"/>

    <connection from="gneE311" to="gneE298" fromLane="0" toLane="0"/>

    <connection from="gneE315" to="gneE351" fromLane="0" toLane="0"/>

    <connection from="gneE316" to="gneE350" fromLane="0" toLane="0"/>

    <connection from="gneE317" to="gneE352" fromLane="0" toLane="0"/>

    <connection from="gneE318" to="gneE351" fromLane="0" toLane="0"/>

    <connection from="gneE320" to="gneE321" fromLane="0" toLane="0"/>

    <connection from="gneE321" to="gneE278" fromLane="0" toLane="0"/>
    <connection from="gneE321" to="gneE277" fromLane="0" toLane="0"/>

    <connection from="gneE322" to="gneE321" fromLane="0" toLane="0"/>

    <connection from="gneE323" to="gneE337" fromLane="0" toLane="0"/>
    <connection from="gneE323" to="gneE332" fromLane="0" toLane="0"/>

    <connection from="gneE324" to="gneE336" fromLane="0" toLane="0"/>
    <connection from="gneE324" to="gneE329" fromLane="0" toLane="0"/>
    <connection from="gneE324" to="gneE338" fromLane="0" toLane="0"/>

    <connection from="gneE325" to="gneE326" fromLane="0" toLane="0"/>
    <connection from="gneE325" to="gneE335" fromLane="0" toLane="0"/>

    <connection from="gneE326" to="gneE327" fromLane="0" toLane="0"/>

    <connection from="gneE327" to="gneE328" fromLane="0" toLane="0"/>
    <connection from="gneE327" to="gneE339" fromLane="0" toLane="0"/>

    <connection from="gneE328" to="gneE346" fromLane="0" toLane="0"/>

    <connection from="gneE329" to="gneE330" fromLane="0" toLane="0"/>

    <connection from="gneE330" to="gneE342" fromLane="0" toLane="0"/>
    <connection from="gneE330" to="gneE331" fromLane="0" toLane="0"/>
    <connection from="gneE330" to="gneE341" fromLane="0" toLane="0"/>

    <connection from="gneE331" to="gneE345" fromLane="0" toLane="0"/>

    <connection from="gneE332" to="gneE333" fromLane="0" toLane="0"/>

    <connection from="gneE333" to="gneE340" fromLane="0" toLane="0"/>
    <connection from="gneE333" to="gneE334" fromLane="0" toLane="0"/>

    <connection from="gneE334" to="gneE344" fromLane="0" toLane="0"/>

    <connection from="gneE335" to="gneE330" fromLane="0" toLane="0"/>

    <connection from="gneE336" to="gneE327" fromLane="0" toLane="0"/>

    <connection from="gneE337" to="gneE330" fromLane="0" toLane="0"/>

    <connection from="gneE338" to="gneE333" fromLane="0" toLane="0"/>

    <connection from="gneE339" to="gneE345" fromLane="0" toLane="0"/>

    <connection from="gneE340" to="gneE345" fromLane="0" toLane="0"/>

    <connection from="gneE341" to="gneE344" fromLane="0" toLane="0"/>

    <connection from="gneE342" to="gneE346" fromLane="0" toLane="0"/>

    <connection from="gneE347" to="gneE283" fromLane="0" toLane="0"/>
    <connection from="gneE347" to="gneE282" fromLane="0" toLane="0"/>

    <connection from="gneE348" to="gneE322" fromLane="0" toLane="0"/>
    <connection from="gneE348" to="gneE286" fromLane="0" toLane="0"/>
    <connection from="gneE348" to="gneE285" fromLane="0" toLane="0"/>

    <connection from="gneE349" to="gneE320" fromLane="0" toLane="0"/>
    <connection from="gneE349" to="gneE289" fromLane="0" toLane="0"/>

    <connection from="gneE353" to="gneE304" fromLane="0" toLane="0"/>
    <connection from="gneE353" to="gneE248" fromLane="0" toLane="0"/>

    <connection from="gneE354" to="gneE307" fromLane="0" toLane="0"/>
    <connection from="gneE354" to="gneE254" fromLane="0" toLane="0"/>
    <connection from="gneE354" to="gneE305" fromLane="0" toLane="0"/>

    <connection from="gneE355" to="gneE261" fromLane="0" toLane="0"/>
    <connection from="gneE355" to="gneE306" fromLane="0" toLane="0"/>

    <connection from="gneE356" to="Eeast3" fromLane="0" toLane="0"/>

    <connection from="gneE357" to="gneE356" fromLane="0" toLane="0"/>
    <connection from="gneE357" to="gneE372" fromLane="0" toLane="0"/>

    <connection from="gneE358" to="gneE357" fromLane="0" toLane="0"/>

    <connection from="gneE359" to="gneE358" fromLane="0" toLane="0"/>
    <connection from="gneE359" to="gneE368" fromLane="0" toLane="0"/>

    <connection from="gneE360" to="gneE369" fromLane="0" toLane="0"/>
    <connection from="gneE360" to="gneE361" fromLane="0" toLane="0"/>
    <connection from="gneE360" to="gneE370" fromLane="0" toLane="0"/>

    <connection from="gneE361" to="gneE362" fromLane="0" toLane="0"/>

    <connection from="gneE362" to="gneE373" fromLane="0" toLane="0"/>
    <connection from="gneE362" to="gneE363" fromLane="0" toLane="0"/>
    <connection from="gneE362" to="gneE374" fromLane="0" toLane="0"/>

    <connection from="gneE363" to="Eeast2" fromLane="0" toLane="0"/>

    <connection from="gneE364" to="gneE371" fromLane="0" toLane="0"/>
    <connection from="gneE364" to="gneE365" fromLane="0" toLane="0"/>

    <connection from="gneE365" to="gneE366" fromLane="0" toLane="0"/>

    <connection from="gneE366" to="gneE375" fromLane="0" toLane="0"/>
    <connection from="gneE366" to="gneE367" fromLane="0" toLane="0"/>

    <connection from="gneE367" to="Eeast1" fromLane="0" toLane="0"/>

    <connection from="gneE368" to="gneE362" fromLane="0" toLane="0"/>

    <connection from="gneE369" to="gneE357" fromLane="0" toLane="0"/>

    <connection from="gneE370" to="gneE366" fromLane="0" toLane="0"/>

    <connection from="gneE371" to="gneE362" fromLane="0" toLane="0"/>

    <connection from="gneE372" to="Eeast2" fromLane="0" toLane="0"/>

    <connection from="gneE373" to="Eeast3" fromLane="0" toLane="0"/>

    <connection from="gneE374" to="Eeast1" fromLane="0" toLane="0"/>

    <connection from="gneE375" to="Eeast2" fromLane="0" toLane="0"/>

    <connection from="gneE376" to="gneE391" fromLane="0" toLane="0"/>
    <connection from="gneE376" to="gneE377" fromLane="0" toLane="0"/>

    <connection from="gneE377" to="gneE378" fromLane="0" toLane="0"/>

    <connection from="gneE378" to="gneE395" fromLane="0" toLane="0"/>
    <connection from="gneE378" to="gneE379" fromLane="0" toLane="0"/>

    <connection from="gneE379" to="gneE380" fromLane="0" toLane="0"/>

    <connection from="gneE381" to="gneE394" fromLane="0" toLane="0"/>
    <connection from="gneE381" to="gneE382" fromLane="0" toLane="0"/>
    <connection from="gneE381" to="gneE392" fromLane="0" toLane="0"/>

    <connection from="gneE382" to="gneE383" fromLane="0" toLane="0"/>

    <connection from="gneE383" to="gneE398" fromLane="0" toLane="0"/>
    <connection from="gneE383" to="gneE384" fromLane="0" toLane="0"/>
    <connection from="gneE383" to="gneE396" fromLane="0" toLane="0"/>

    <connection from="gneE384" to="gneE385" fromLane="0" toLane="0"/>

    <connection from="gneE386" to="gneE387" fromLane="0" toLane="0"/>
    <connection from="gneE386" to="gneE393" fromLane="0" toLane="0"/>

    <connection from="gneE387" to="gneE388" fromLane="0" toLane="0"/>

    <connection from="gneE388" to="gneE389" fromLane="0" toLane="0"/>
    <connection from="gneE388" to="gneE397" fromLane="0" toLane="0"/>

    <connection from="gneE389" to="gneE390" fromLane="0" toLane="0"/>

    <connection from="gneE391" to="gneE383" fromLane="0" toLane="0"/>

    <connection from="gneE392" to="gneE378" fromLane="0" toLane="0"/>

    <connection from="gneE393" to="gneE383" fromLane="0" toLane="0"/>

    <connection from="gneE394" to="gneE388" fromLane="0" toLane="0"/>

    <connection from="gneE395" to="gneE385" fromLane="0" toLane="0"/>

    <connection from="gneE396" to="gneE380" fromLane="0" toLane="0"/>

    <connection from="gneE397" to="gneE385" fromLane="0" toLane="0"/>

    <connection from="gneE398" to="gneE390" fromLane="0" toLane="0"/>

    <connection from="gneE399" to="gneE381" fromLane="0" toLane="0"/>

    <connection from="gneE400" to="gneE381" fromLane="0" toLane="0"/>

    <connection from="gneE401" to="gneE376" fromLane="0" toLane="0"/>

    <connection from="gneE402" to="gneE386" fromLane="0" toLane="0"/>

    <connection from="gneE403" to="gneE104" fromLane="0" toLane="0"/>

    <connection from="gneE404" to="gneE103" fromLane="0" toLane="0"/>

    <connection from="gneE405" to="gneE104" fromLane="0" toLane="0"/>

    <connection from="gneE406" to="gneE106" fromLane="0" toLane="0"/>

    <connection from="gneE408" to="gneE411" fromLane="0" toLane="0"/>
    <connection from="gneE408" to="gneE431" fromLane="0" toLane="0"/>

    <connection from="gneE409" to="gneE432" fromLane="0" toLane="0"/>
    <connection from="gneE409" to="gneE414" fromLane="0" toLane="0"/>
    <connection from="gneE409" to="gneE430" fromLane="0" toLane="0"/>

    <connection from="gneE410" to="gneE429" fromLane="0" toLane="0"/>
    <connection from="gneE410" to="gneE417" fromLane="0" toLane="0"/>

    <connection from="gneE411" to="gneE412" fromLane="0" toLane="0"/>

    <connection from="gneE412" to="gneE413" fromLane="0" toLane="0"/>
    <connection from="gneE412" to="gneE439" fromLane="0" toLane="0"/>

    <connection from="gneE413" to="gneE446" fromLane="0" toLane="0"/>

    <connection from="gneE414" to="gneE415" fromLane="0" toLane="0"/>

    <connection from="gneE415" to="gneE440" fromLane="0" toLane="0"/>
    <connection from="gneE415" to="gneE416" fromLane="0" toLane="0"/>
    <connection from="gneE415" to="gneE438" fromLane="0" toLane="0"/>

    <connection from="gneE416" to="gneE447" fromLane="0" toLane="0"/>

    <connection from="gneE417" to="gneE418" fromLane="0" toLane="0"/>

    <connection from="gneE418" to="gneE437" fromLane="0" toLane="0"/>
    <connection from="gneE418" to="gneE419" fromLane="0" toLane="0"/>

    <connection from="gneE419" to="gneE448" fromLane="0" toLane="0"/>

    <connection from="gneE420" to="gneE421" fromLane="0" toLane="0"/>

    <connection from="gneE421" to="gneE435" fromLane="0" toLane="0"/>
    <connection from="gneE421" to="gneE422" fromLane="0" toLane="0"/>

    <connection from="gneE422" to="Enorth1" fromLane="0" toLane="0"/>

    <connection from="gneE423" to="gneE424" fromLane="0" toLane="0"/>

    <connection from="gneE424" to="gneE434" fromLane="0" toLane="0"/>
    <connection from="gneE424" to="gneE425" fromLane="0" toLane="0"/>
    <connection from="gneE424" to="gneE436" fromLane="0" toLane="0"/>

    <connection from="gneE425" to="Enorth2" fromLane="0" toLane="0"/>

    <connection from="gneE426" to="gneE427" fromLane="0" toLane="0"/>

    <connection from="gneE427" to="gneE428" fromLane="0" toLane="0"/>
    <connection from="gneE427" to="gneE433" fromLane="0" toLane="0"/>

    <connection from="gneE428" to="Enorth3" fromLane="0" toLane="0"/>

    <connection from="gneE429" to="gneE415" fromLane="0" toLane="0"/>

    <connection from="gneE430" to="gneE418" fromLane="0" toLane="0"/>

    <connection from="gneE431" to="gneE415" fromLane="0" toLane="0"/>

    <connection from="gneE432" to="gneE412" fromLane="0" toLane="0"/>

    <connection from="gneE433" to="Enorth2" fromLane="0" toLane="0"/>

    <connection from="gneE434" to="Enorth3" fromLane="0" toLane="0"/>

    <connection from="gneE435" to="Enorth2" fromLane="0" toLane="0"/>

    <connection from="gneE436" to="Enorth1" fromLane="0" toLane="0"/>

    <connection from="gneE437" to="gneE447" fromLane="0" toLane="0"/>

    <connection from="gneE438" to="gneE448" fromLane="0" toLane="0"/>

    <connection from="gneE439" to="gneE447" fromLane="0" toLane="0"/>

    <connection from="gneE440" to="gneE446" fromLane="0" toLane="0"/>

    <connection from="gneE441" to="gneE424" fromLane="0" toLane="0"/>

    <connection from="gneE443" to="gneE421" fromLane="0" toLane="0"/>

    <connection from="gneE444" to="gneE424" fromLane="0" toLane="0"/>

    <connection from="gneE445" to="gneE427" fromLane="0" toLane="0"/>

    <connection from="gneE449" to="gneE441" fromLane="0" toLane="0"/>
    <connection from="gneE449" to="gneE420" fromLane="0" toLane="0"/>

    <connection from="gneE450" to="gneE445" fromLane="0" toLane="0"/>
    <connection from="gneE450" to="gneE423" fromLane="0" toLane="0"/>
    <connection from="gneE450" to="gneE443" fromLane="0" toLane="0"/>

    <connection from="gneE451" to="gneE426" fromLane="0" toLane="0"/>
    <connection from="gneE451" to="gneE444" fromLane="0" toLane="0"/>

    <connection from="gneE453" to="Oeast1" fromLane="0" toLane="0"/>

    <connection from="gneE454" to="Oeast2" fromLane="0" toLane="0"/>

    <connection from="gneE455" to="Oeast3" fromLane="0" toLane="0"/>

    <connection from="gneE456" to="Owest1" fromLane="0" toLane="0"/>

    <connection from="gneE457" to="Owest2" fromLane="0" toLane="0"/>

    <connection from="gneE458" to="Owest3" fromLane="0" toLane="0"/>

    <connection from="gneE459" to="gneE489" fromLane="0" toLane="0"/>
    <connection from="gneE459" to="gneE494" fromLane="0" toLane="0"/>

    <connection from="gneE460" to="gneE488" fromLane="0" toLane="0"/>
    <connection from="gneE460" to="gneE495" fromLane="0" toLane="0"/>

    <connection from="gneE461" to="gneE487" fromLane="0" toLane="0"/>
    <connection from="gneE461" to="gneE496" fromLane="0" toLane="0"/>
    <connection from="gneE461" to="gneE500" fromLane="0" toLane="0"/>

    <connection from="gneE462" to="Osouth1" fromLane="0" toLane="0"/>

    <connection from="gneE463" to="Osouth2" fromLane="0" toLane="0"/>

    <connection from="gneE464" to="Osouth3" fromLane="0" toLane="0"/>

    <connection from="gneE465" to="Onorth3" fromLane="0" toLane="0"/>

    <connection from="gneE466" to="Onorth2" fromLane="0" toLane="0"/>

    <connection from="gneE467" to="Onorth1" fromLane="0" toLane="0"/>

    <connection from="gneE468" to="gneE480" fromLane="0" toLane="0"/>
    <connection from="gneE468" to="gneE497" fromLane="0" toLane="0"/>
    <connection from="gneE468" to="gneE501" fromLane="0" toLane="0"/>

    <connection from="gneE469" to="gneE481" fromLane="0" toLane="0"/>
    <connection from="gneE469" to="gneE498" fromLane="0" toLane="0"/>

    <connection from="gneE470" to="gneE482" fromLane="0" toLane="0"/>
    <connection from="gneE470" to="gneE499" fromLane="0" toLane="0"/>

    <connection from="gneE472" to="gneE476" fromLane="0" toLane="0"/>

    <connection from="gneE473" to="Owest3" fromLane="0" toLane="0"/>

    <connection from="gneE474" to="gneE483" fromLane="0" toLane="0"/>

    <connection from="gneE475" to="Oeast3" fromLane="0" toLane="0"/>

    <connection from="gneE476" to="gneE465" fromLane="0" toLane="0"/>
    <connection from="gneE476" to="gneE477" fromLane="0" toLane="0"/>

    <connection from="gneE477" to="gneE466" fromLane="0" toLane="0"/>
    <connection from="gneE477" to="gneE478" fromLane="0" toLane="0"/>

    <connection from="gneE478" to="gneE467" fromLane="0" toLane="0"/>
    <connection from="gneE478" to="gneE479" fromLane="0" toLane="0"/>

    <connection from="gneE479" to="gneE480" fromLane="0" toLane="0"/>
    <connection from="gneE479" to="gneE497" fromLane="0" toLane="0"/>

    <connection from="gneE480" to="gneE481" fromLane="0" toLane="0"/>