<?xml version="1.0" encoding="UTF-8"?>

<!-- generated on 6/25/2018 12:20:16 PM by Netedit Version 0.32.0
<?xml version="1.0" encoding="UTF-8"?>

<configuration xmlns:xsi="http://www.w3.org/2001/XMLSchema-instance" xsi:noNamespaceSchemaLocation="http://sumo.dlr.de/xsd/netconvertConfiguration.xsd">

    <input>
        <sumo-net-file value="C:\Users\abeld\Downloads\Intersection\DivergingDiamond\DivergingDiamond.net.xml"/>
    </input>

    <output>
        <output-file value="C:\Users\abeld\Downloads\Intersection\DivergingDiamond\DivergingDiamond.net.xml"/>
        <plain-output-prefix value="C:\Users\abeld\Downloads\Intersection\DivergingDiamond\DivergingDiamond"/>
    </output>

    <processing>
        <no-turnarounds value="true"/>
        <offset.disable-normalization value="true"/>
        <lefthand value="false"/>
        <junctions.corner-detail value="0"/>
        <rectangular-lane-cut value="false"/>
        <walkingareas value="false"/>
    </processing>

</configuration>
-->

<connections version="0.27" xmlns:xsi="http://www.w3.org/2001/XMLSchema-instance" xsi:noNamespaceSchemaLocation="http://sumo.dlr.de/xsd/connections_file.xsd">
    <connection from="gneE100" to="gneE106" fromLane="0" toLane="0"/>

    <connection from="gneE101" to="gneE103" fromLane="0" toLane="0"/>

    <connection from="gneE102" to="gneE104" fromLane="0" toLane="0"/>

    <connection from="gneE103" to="gneE328" fromLane="0" toLane="0"/>

    <connection from="gneE104" to="gneE329" fromLane="0" toLane="0"/>

    <connection from="gneE106" to="gneE340" fromLane="0" toLane="0"/>
    <connection from="gneE106" to="gneE330" fromLane="0" toLane="0"/>

    <connection from="gneE140" to="gneE145" fromLane="0" toLane="0"/>

    <connection from="gneE141" to="gneE144" fromLane="0" toLane="0"/>

    <connection from="gneE142" to="gneE143" fromLane="0" toLane="0"/>

    <connection from="gneE143" to="gneE327" fromLane="0" toLane="0"/>

    <connection from="gneE144" to="gneE326" fromLane="0" toLane="0"/>

    <connection from="gneE145" to="gneE336" fromLane="0" toLane="0"/>
    <connection from="gneE145" to="gneE325" fromLane="0" toLane="0"/>

    <connection from="gneE148" to="gneE154" fromLane="0" toLane="0"/>

    <connection from="gneE149" to="gneE153" fromLane="0" toLane="0"/>

    <connection from="gneE150" to="gneE152" fromLane="0" toLane="0"/>

    <connection from="gneE152" to="gneE396" fromLane="0" toLane="0"/>

    <connection from="gneE153" to="gneE388" fromLane="0" toLane="0"/>

    <connection from="gneE154" to="gneE387" fromLane="0" toLane="0"/>

    <connection from="gneE155" to="gneE158" fromLane="0" toLane="0"/>

    <connection from="gneE156" to="gneE159" fromLane="0" toLane="0"/>

    <connection from="gneE157" to="gneE160" fromLane="0" toLane="0"/>

    <connection from="gneE158" to="gneE359" fromLane="0" toLane="0"/>

    <connection from="gneE159" to="gneE361" fromLane="0" toLane="0"/>

    <connection from="gneE160" to="gneE362" fromLane="0" toLane="0"/>

    <connection from="gneE162" to="gneE159" fromLane="0" toLane="0"/>

    <connection from="gneE163" to="gneE158" fromLane="0" toLane="0"/>

    <connection from="gneE164" to="gneE160" fromLane="0" toLane="0"/>

    <connection from="gneE165" to="gneE159" fromLane="0" toLane="0"/>

    <connection from="gneE166" to="gneE144" fromLane="0" toLane="0"/>

    <connection from="gneE167" to="gneE143" fromLane="0" toLane="0"/>

    <connection from="gneE168" to="gneE145" fromLane="0" toLane="0"/>

    <connection from="gneE169" to="gneE144" fromLane="0" toLane="0"/>

    <connection from="gneE170" to="gneE153" fromLane="0" toLane="0"/>

    <connection from="gneE171" to="gneE152" fromLane="0" toLane="0"/>

    <connection from="gneE172" to="gneE154" fromLane="0" toLane="0"/>

    <connection from="gneE173" to="gneE153" fromLane="0" toLane="0"/>

    <connection from="gneE211" to="gneE199" fromLane="0" toLane="0"/>
    <connection from="gneE211" to="gneE200" fromLane="0" toLane="0"/>
    <connection from="gneE211" to="gneE410" fromLane="0" toLane="0"/>

    <connection from="gneE277" to="gneE412" fromLane="0" toLane="0"/>
    <connection from="gneE277" to="gneE180" fromLane="0" toLane="0"/>
    <connection from="gneE277" to="gneE174" fromLane="0" toLane="0"/>

    <connection from="gneE278" to="gneE411" fromLane="0" toLane="0"/>
    <connection from="gneE278" to="gneE202" fromLane="0" toLane="0"/>
    <connection from="gneE278" to="gneE197" fromLane="0" toLane="0"/>

    <connection from="gneE325" to="gneE33" fromLane="0" toLane="0"/>

    <connection from="gneE326" to="gneE34" fromLane="0" toLane="0"/>

    <connection from="gneE327" to="gneE35" fromLane="0" toLane="0"/>

    <connection from="gneE328" to="gneE41" fromLane="0" toLane="0"/>

    <connection from="gneE329" to="gneE40" fromLane="0" toLane="0"/>

    <connection from="gneE33" to="gneE189" fromLane="0" toLane="0"/>
    <connection from="gneE33" to="gneE194" fromLane="0" toLane="0"/>
    <connection from="gneE33" to="gneE409" fromLane="0" toLane="0"/>

    <connection from="gneE330" to="gneE39" fromLane="0" toLane="0"/>

    <connection from="gneE336" to="gneE337" fromLane="0" toLane="0"/>

    <connection from="gneE337" to="gneE376" fromLane="0" toLane="0"/>

    <connection from="gneE338" to="gneE39" fromLane="0" toLane="0"/>

    <connection from="gneE339" to="gneE338" fromLane="0" toLane="0"/>

    <connection from="gneE34" to="gneE193" fromLane="0" toLane="0"/>
    <connection from="gneE34" to="gneE190" fromLane="0" toLane="0"/>

    <connection from="gneE340" to="gneE341" fromLane="0" toLane="0"/>

    <connection from="gneE341" to="gneE393" fromLane="0" toLane="0"/>
    <connection from="gneE341" to="gneE394" fromLane="0" toLane="0"/>

    <connection from="gneE342" to="gneE33" fromLane="0" toLane="0"/>

    <connection from="gneE343" to="gneE342" fromLane="0" toLane="0"/>

    <connection from="gneE35" to="gneE408" fromLane="0" toLane="0"/>
    <connection from="gneE35" to="gneE192" fromLane="0" toLane="0"/>
    <connection from="gneE35" to="gneE191" fromLane="0" toLane="0"/>

    <connection from="gneE350" to="gneE391" fromLane="0" toLane="0"/>

    <connection from="gneE351" to="gneE381" fromLane="0" toLane="0"/>

    <connection from="gneE352" to="gneE380" fromLane="0" toLane="0"/>

    <connection from="gneE353" to="gneE369" fromLane="0" toLane="0"/>

    <connection from="gneE354" to="gneE370" fromLane="0" toLane="0"/>

    <connection from="gneE355" to="gneE356" fromLane="0" toLane="0"/>

    <connection from="gneE356" to="gneE357" fromLane="0" toLane="0"/>

    <connection from="gneE357" to="gneE343" fromLane="0" toLane="0"/>

    <connection from="gneE359" to="gneE360" fromLane="0" toLane="0"/>

    <connection from="gneE360" to="gneE357" fromLane="0" toLane="0"/>

    <connection from="gneE361" to="gneE365" fromLane="0" toLane="0"/>

    <connection from="gneE362" to="gneE366" fromLane="0" toLane="0"/>

    <connection from="gneE365" to="gneE367" fromLane="0" toLane="0"/>
    <connection from="gneE365" to="gneE371" fromLane="0" toLane="0"/>

    <connection from="gneE366" to="gneE368" fromLane="0" toLane="0"/>
    <connection from="gneE366" to="gneE372" fromLane="0" toLane="0"/>

    <connection from="gneE367" to="gneE352" fromLane="0" toLane="0"/>

    <connection from="gneE368" to="gneE351" fromLane="0" toLane="0"/>

    <connection from="gneE369" to="gneE368" fromLane="0" toLane="0"/>
    <connection from="gneE369" to="gneE372" fromLane="0" toLane="0"/>

    <connection from="gneE370" to="gneE367" fromLane="0" toLane="0"/>
    <connection from="gneE370" to="gneE371" fromLane="0" toLane="0"/>

    <connection from="gneE371" to="gneE373" fromLane="0" toLane="0"/>

    <connection from="gneE372" to="gneE374" fromLane="0" toLane="0"/>

    <connection from="gneE373" to="gneE278" fromLane="0" toLane="0"/>

    <connection from="gneE374" to="gneE52" fromLane="0" toLane="0"/>

    <connection from="gneE375" to="gneE211" fromLane="0" toLane="0"/>

    <connection from="gneE376" to="gneE377" fromLane="0" toLane="0"/>
    <connection from="gneE376" to="gneE382" fromLane="0" toLane="0"/>

    <connection from="gneE377" to="gneE375" fromLane="0" toLane="0"/>

    <connection from="gneE378" to="gneE354" fromLane="0" toLane="0"/>

    <connection from="gneE379" to="gneE353" fromLane="0" toLane="0"/>

    <connection from="gneE380" to="gneE378" fromLane="0" toLane="0"/>
    <connection from="gneE380" to="gneE385" fromLane="0" toLane="0"/>

    <connection from="gneE381" to="gneE379" fromLane="0" toLane="0"/>
    <connection from="gneE381" to="gneE386" fromLane="0" toLane="0"/>

    <connection from="gneE382" to="gneE350" fromLane="0" toLane="0"/>

    <connection from="gneE383" to="gneE385" fromLane="0" toLane="0"/>
    <connection from="gneE383" to="gneE378" fromLane="0" toLane="0"/>

    <connection from="gneE384" to="gneE386" fromLane="0" toLane="0"/>
    <connection from="gneE384" to="gneE379" fromLane="0" toLane="0"/>

    <connection from="gneE389" to="gneE277" fromLane="0" toLane="0"/>

    <connection from="gneE39" to="gneE183" fromLane="0" toLane="0"/>
    <connection from="gneE39" to="gneE185" fromLane="0" toLane="0"/>
    <connection from="gneE39" to="gneE404" fromLane="0" toLane="0"/>

    <connection from="gneE390" to="gneE59" fromLane="0" toLane="0"/>

    <connection from="gneE391" to="gneE339" fromLane="0" toLane="0"/>

    <connection from="gneE392" to="gneE339" fromLane="0" toLane="0"/>

    <connection from="gneE393" to="gneE395" fromLane="0" toLane="0"/>

    <connection from="gneE394" to="gneE355" fromLane="0" toLane="0"/>

    <connection from="gneE395" to="gneE58" fromLane="0" toLane="0"/>

    <connection from="gneE396" to="gneE392" fromLane="0" toLane="0"/>

    <connection from="gneE397" to="gneE106" fromLane="0" toLane="0"/>

    <connection from="gneE398" to="gneE103" fromLane="0" toLane="0"/>

    <connection from="gneE399" to="gneE158" fromLane="0" toLane="0"/>

    <connection from="gneE40" to="gneE184" fromLane="0" toLane="0"/>
    <connection from="gneE40" to="gneE182" fromLane="0" toLane="0"/>
    <connection from="gneE40" to="gneE187" fromLane="0" toLane="0"/>

    <connection from="gneE400" to="gneE160" fromLane="0" toLane="0"/>

    <connection from="gneE401" to="gneE143" fromLane="0" toLane="0"/>

    <connection from="gneE402" to="gneE145" fromLane="0" toLane="0"/>

    <connection from="gneE405" to="gneE154" fromLane="0" toLane="0"/>

    <connection from="gneE406" to="gneE152" fromLane="0" toLane="0"/>

    <connection from="gneE41" to="gneE403" fromLane="0" toLane="0"/>
    <connection from="gneE41" to="gneE186" fromLane="0" toLane="0"/>
    <connection from="gneE41" to="gneE181" fromLane="0" toLane="0"/>

    <connection from="gneE45" to="gneE402" fromLane="0" toLane="0"/>
    <connection from="gneE45" to="gneE166" fromLane="0" toLane="0"/>
    <connection from="gneE45" to="gneE142" fromLane="0" toLane="0"/>

    <connection from="gneE46" to="gneE168" fromLane="0" toLane="0"/>
    <connection from="gneE46" to="gneE141" fromLane="0" toLane="0"/>
    <connection from="gneE46" to="gneE167" fromLane="0" toLane="0"/>

    <connection from="gneE47" to="gneE140" fromLane="0" toLane="0"/>
    <connection from="gneE47" to="gneE169" fromLane="0" toLane="0"/>
    <connection from="gneE47" to="gneE401" fromLane="0" toLane="0"/>

    <connection from="gneE48" to="gneE397" fromLane="0" toLane="0"/>
    <connection from="gneE48" to="gneE102" fromLane="0" toLane="0"/>
    <connection from="gneE48" to="gneE96" fromLane="0" toLane="0"/>

    <connection from="gneE49" to="gneE100" fromLane="0" toLane="0"/>
    <connection from="gneE49" to="gneE97" fromLane="0" toLane="0"/>
    <connection from="gneE49" to="gneE101" fromLane="0" toLane="0"/>

    <connection from="gneE50" to="gneE98" fromLane="0" toLane="0"/>
    <connection from="gneE50" to="gneE99" fromLane="0" toLane="0"/>
    <connection from="gneE50" to="gneE398" fromLane="0" toLane="0"/>

    <connection from="gneE52" to="gneE201" fromLane="0" toLane="0"/>
    <connection from="gneE52" to="gneE198" fromLane="0" toLane="0"/>
    <connection from="gneE52" to="gneE203" fromLane="0" toLane="0"/>

    <connection from="gneE54" to="gneE399" fromLane="0" toLane="0"/>
    <connection from="gneE54" to="gneE165" fromLane="0" toLane="0"/>
    <connection from="gneE54" to="gneE157" fromLane="0" toLane="0"/>

    <connection from="gneE55" to="gneE163" fromLane="0" toLane="0"/>
    <connection from="gneE55" to="gneE156" fromLane="0" toLane="0"/>
    <connection from="gneE55" to="gneE164" fromLane="0" toLane="0"/>

    <connection from="gneE56" to="gneE155" fromLane="0" toLane="0"/>
    <connection from="gneE56" to="gneE162" fromLane="0" toLane="0"/>
    <connection from="gneE56" to="gneE400" fromLane="0" toLane="0"/>

    <connection from="gneE58" to="gneE176" fromLane="0" toLane="0"/>
    <connection from="gneE58" to="gneE177" fromLane="0" toLane="0"/>
    <connection from="gneE58" to="gneE413" fromLane="0" toLane="0"/>

    <connection from="gneE59" to="gneE178" fromLane="0" toLane="0"/>
    <connection from="gneE59" to="gneE175" fromLane="0" toLane="0"/>
    <connection from="gneE59" to="gneE179" fromLane="0" toLane="0"/>

    <connection from="gneE61" to="gneE406" fromLane="0" toLane="0"/>
    <connection from="gneE61" to="gneE173" fromLane="0" toLane="0"/>
    <connection from="gneE61" to="gneE148" fromLane="0" toLane="0"/>

    <connection from="gneE62" to="gneE171" fromLane="0" toLane="0"/>
    <connection from="gneE62" to="gneE149" fromLane="0" toLane="0"/>
    <connection from="gneE62" to="gneE172" fromLane="0" toLane="0"/>

    <connection from="gneE63" to="gneE150" fromLane="0" toLane="0"/>
    <connection from="gneE63" to="gneE170" fromLane="0" toLane="0"/>
    <connection from="gneE63" to="gneE405" fromLane="0" toLane="0"/>

    <connection from="gneE96" to="gneE103" fromLane="0" toLane="0"/>

    <connection from="gneE97" to="gneE104" fromLane="0" toLane="0"/>

    <connection from="gneE98" to="gneE106" fromLane="0" toLane="0"/>

    <connection from="gneE99" to="gneE104" fromLane="0" toLane="0"/>

</connections>
