<?xml version="1.0" encoding="UTF-8"?>

<!-- generated on 6/25/2018 11:11:58 PM by Netedit Version 0.32.0
<?xml version="1.0" encoding="UTF-8"?>

<configuration xmlns:xsi="http://www.w3.org/2001/XMLSchema-instance" xsi:noNamespaceSchemaLocation="http://sumo.dlr.de/xsd/netconvertConfiguration.xsd">

    <input>
        <sumo-net-file value="C:\Users\abeld\Documents\School\Year%202\Project%202-2\Project_2.2\desktop\assets\Intersection\PinaVia.net.xml"/>
    </input>

    <output>
        <output-file value="C:\Users\abeld\Documents\School\Year%202\Project%202-2\Project_2.2\desktop\assets\Intersection\PinaVia.net.xml"/>
        <plain-output-prefix value=""/>
    </output>

    <processing>
        <no-turnarounds value="true"/>
        <offset.disable-normalization value="true"/>
        <lefthand value="false"/>
        <junctions.corner-detail value="0"/>
        <rectangular-lane-cut value="false"/>
        <walkingareas value="false"/>
    </processing>

</configuration>
-->

<net version="0.27" xmlns:xsi="http://www.w3.org/2001/XMLSchema-instance" xsi:noNamespaceSchemaLocation="http://sumo.dlr.de/xsd/net_file.xsd">

    <location netOffset="0.00,0.00" convBoundary="-1410.00,-1650.00,1470.00,1470.00" origBoundary="-10000000000.00,-10000000000.00,10000000000.00,10000000000.00" projParameter="!"/>

    <edge id=":gneJ315_0" function="internal">
        <lane id=":gneJ315_0_0" index="0" speed="13.89" length="0.20" shape="21.66,-410.00 21.66,-409.94 21.65,-409.90 21.65,-409.86 21.65,-409.80"/>
    </edge>
    <edge id=":gneJ316_0" function="internal">
        <lane id=":gneJ316_0_0" index="0" speed="13.89" length="0.26" shape="21.65,-380.15 21.65,-379.89"/>
    </edge>
    <edge id=":gneJ317_0" function="internal">
        <lane id=":gneJ317_0_0" index="0" speed="13.89" length="0.15" shape="41.65,-410.15 41.65,-410.10 41.65,-410.08 41.65,-410.05 41.66,-410.00"/>
    </edge>
    <edge id=":gneJ318_0" function="internal">
        <lane id=":gneJ318_0_0" index="0" speed="13.89" length="0.29" shape="44.29,-381.20 44.32,-380.90"/>
    </edge>
    <edge id=":gneJ319_0" function="internal">
        <lane id=":gneJ319_0_0" index="0" speed="13.89" length="0.12" shape="61.64,-410.20 61.65,-410.08"/>
    </edge>
    <edge id=":gneJ320_0" function="internal">
        <lane id=":gneJ320_0_0" index="0" speed="13.89" length="0.13" shape="62.97,-381.98 62.98,-381.85"/>
    </edge>
    <edge id=":gneJ321_0" function="internal">
        <lane id=":gneJ321_0_0" index="0" speed="13.89" length="0.15" shape="22.98,-330.19 22.98,-330.15 22.98,-330.12 22.98,-330.09 22.99,-330.05"/>
    </edge>
    <edge id=":gneJ322_0" function="internal">
        <lane id=":gneJ322_0_0" index="0" speed="13.89" length="0.28" shape="28.95,-280.03 28.96,-279.95 28.96,-279.90 28.98,-279.84 29.00,-279.76"/>
    </edge>
    <edge id=":gneJ323_0" function="internal">
        <lane id=":gneJ323_0_0" index="0" speed="13.89" length="0.19" shape="41.09,-239.33 41.10,-239.27 41.11,-239.24 41.13,-239.20 41.15,-239.15"/>
    </edge>
    <edge id=":gneJ324_0" function="internal">
        <lane id=":gneJ324_0_0" index="0" speed="13.89" length="0.47" shape="57.78,-200.66 57.84,-200.53 57.88,-200.44 57.94,-200.37 58.03,-200.26"/>
    </edge>
    <edge id=":gneJ325_0" function="internal">
        <lane id=":gneJ325_0_0" index="0" speed="13.89" length="0.10" shape="91.26,-161.07 91.32,-160.99"/>
    </edge>
    <edge id=":gneJ326_0" function="internal">
        <lane id=":gneJ326_0_0" index="0" speed="13.89" length="0.52" shape="121.32,-120.98 121.42,-120.86 121.47,-120.77 121.51,-120.67 121.56,-120.53"/>
    </edge>
    <edge id=":gneJ327_0" function="internal">
        <lane id=":gneJ327_0_0" index="0" speed="13.89" length="0.52" shape="141.57,-60.51 141.61,-60.37 141.64,-60.27 141.65,-60.16 141.65,-60.01"/>
    </edge>
    <edge id=":gneJ328_0" function="internal">
        <lane id=":gneJ328_0_0" index="0" speed="13.89" length="0.32" shape="141.65,-10.00 141.65,-9.90 141.65,-9.84 141.64,-9.77 141.62,-9.68"/>
    </edge>
    <edge id=":gneJ329_0" function="internal">
        <lane id=":gneJ329_0_0" index="0" speed="13.89" length="0.29" shape="131.62,40.33 131.60,40.41 131.58,40.47 131.57,40.53 131.53,40.61"/>
    </edge>
    <edge id=":gneJ330_0" function="internal">
        <lane id=":gneJ330_0_0" index="0" speed="13.89" length="0.10" shape="111.53,90.61 111.53,90.61"/>
    </edge>
    <edge id=":gneJ331_0" function="internal">
        <lane id=":gneJ331_0_0" index="0" speed="13.89" length="0.10" shape="91.53,140.61 91.53,140.61"/>
    </edge>
    <edge id=":gneJ332_0" function="internal">
        <lane id=":gneJ332_0_0" index="0" speed="13.89" length="0.29" shape="71.64,190.34 71.61,190.42 71.59,190.47 71.58,190.53 71.56,190.62"/>
    </edge>
    <edge id=":gneJ333_0" function="internal">
        <lane id=":gneJ333_0_0" index="0" speed="13.89" length="0.25" shape="61.65,240.18 61.60,240.42"/>
    </edge>
    <edge id=":gneJ334_0" function="internal">
        <lane id=":gneJ334_0_0" index="0" speed="13.89" length="0.14" shape="51.65,300.13 51.64,300.17 51.64,300.20 51.64,300.23 51.63,300.27"/>
    </edge>
    <edge id=":gneJ335_0" function="internal">
        <lane id=":gneJ335_0_0" index="0" speed="13.89" length="0.29" shape="46.80,364.26 46.79,364.35 46.79,364.40 46.79,364.46 46.80,364.55"/>
    </edge>
    <edge id=":gneJ336_0" function="internal">
        <lane id=":gneJ336_0_0" index="0" speed="13.89" length="0.17" shape="51.64,409.83 51.65,409.88 51.65,409.91 51.65,409.95 51.65,410.00"/>
    </edge>
    <edge id=":gneJ337_0" function="internal">
        <lane id=":gneJ337_0_0" index="0" speed="13.89" length="0.17" shape="49.41,-330.78 49.42,-330.73 49.42,-330.70 49.43,-330.66 49.44,-330.61"/>
    </edge>
    <edge id=":gneJ338_0" function="internal">
        <lane id=":gneJ338_0_0" index="0" speed="13.89" length="0.18" shape="60.24,-280.09 60.26,-280.04 60.26,-280.00 60.28,-279.96 60.29,-279.91"/>
    </edge>
    <edge id=":gneJ339_0" function="internal">
        <lane id=":gneJ339_0_0" index="0" speed="13.89" length="0.42" shape="80.54,-220.05 80.58,-219.93 80.61,-219.85 80.65,-219.77 80.72,-219.67"/>
    </edge>
    <edge id=":gneJ340_0" function="internal">
        <lane id=":gneJ340_0_0" index="0" speed="13.89" length="0.12" shape="108.65,-177.91 108.71,-177.82"/>
    </edge>
    <edge id=":gneJ341_0" function="internal">
        <lane id=":gneJ341_0_0" index="0" speed="13.89" length="0.36" shape="139.10,-138.80 139.16,-138.71 139.20,-138.65 139.24,-138.59 139.28,-138.49"/>
    </edge>
    <edge id=":gneJ342_0" function="internal">
        <lane id=":gneJ342_0_0" index="0" speed="13.89" length="0.34" shape="161.50,-90.69 161.54,-90.60 161.57,-90.53 161.59,-90.47 161.61,-90.37"/>
    </edge>
    <edge id=":gneJ343_0" function="internal">
        <lane id=":gneJ343_0_0" index="0" speed="13.89" length="0.36" shape="172.94,-40.36 172.96,-40.26 172.97,-40.18 172.98,-40.11 172.98,-40.01"/>
    </edge>
    <edge id=":gneJ344_0" function="internal">
        <lane id=":gneJ344_0_0" index="0" speed="13.89" length="0.44" shape="172.98,4.26 172.98,4.39 172.97,4.48 172.95,4.56 172.92,4.69"/>
    </edge>
    <edge id=":gneJ345_0" function="internal">
        <lane id=":gneJ345_0_0" index="0" speed="13.89" length="0.42" shape="160.70,48.24 160.66,48.36 160.63,48.44 160.60,48.52 160.53,48.63"/>
    </edge>
    <edge id=":gneJ346_0" function="internal">
        <lane id=":gneJ346_0_0" index="0" speed="13.89" length="0.40" shape="141.42,80.85 141.35,80.95 141.31,81.02 141.25,81.08 141.17,81.16"/>
    </edge>
    <edge id=":gneJ347_0" function="internal">
        <lane id=":gneJ347_0_0" index="0" speed="13.89" length="0.52" shape="121.16,101.17 121.05,101.28 120.97,101.35 120.88,101.40 120.75,101.47"/>
    </edge>
    <edge id=":gneJ348_0" function="internal">
        <lane id=":gneJ348_0_0" index="0" speed="13.89" length="0.75" shape="80.73,121.48 80.53,121.58 80.38,121.63 80.23,121.65 80.01,121.65"/>
    </edge>
    <edge id=":gneJ349_0" function="internal">
        <lane id=":gneJ349_0_0" index="0" speed="13.89" length="0.39" shape="9.99,121.65 9.88,121.65 9.80,121.64 9.72,121.63 9.61,121.60"/>
    </edge>
    <edge id=":gneJ350_0" function="internal">
        <lane id=":gneJ350_0_0" index="0" speed="13.89" length="0.35" shape="-30.41,111.60 -30.51,111.57 -30.57,111.55 -30.64,111.52 -30.73,111.48"/>
    </edge>
    <edge id=":gneJ351_0" function="internal">
        <lane id=":gneJ351_0_0" index="0" speed="13.89" length="0.10" shape="-70.74,91.48 -70.65,91.52"/>
    </edge>
    <edge id=":gneJ352_0" function="internal">
        <lane id=":gneJ352_0_0" index="0" speed="13.89" length="0.25" shape="-140.42,61.62 -140.49,61.59 -140.53,61.57 -140.58,61.55 -140.65,61.54"/>
    </edge>
    <edge id=":gneJ353_0" function="internal">
        <lane id=":gneJ353_0_0" index="0" speed="13.89" length="0.10" shape="-193.14,48.08 -193.24,48.06"/>
    </edge>
    <edge id=":gneJ354_0" function="internal">
        <lane id=":gneJ354_0_0" index="0" speed="13.89" length="0.14" shape="-249.82,37.22 -249.86,37.21 -249.89,37.20 -249.92,37.20 -249.96,37.20"/>
    </edge>
    <edge id=":gneJ355_0" function="internal">
        <lane id=":gneJ355_0_0" index="0" speed="13.89" length="0.14" shape="-317.19,30.33 -317.23,30.32 -317.26,30.32 -317.29,30.32 -317.34,30.32"/>
    </edge>
    <edge id=":gneJ356_0" function="internal">
        <lane id=":gneJ356_0_0" index="0" speed="13.89" length="0.26" shape="-408.29,29.22 -408.37,29.22 -408.42,29.22 -408.48,29.23 -408.55,29.24"/>
    </edge>
    <edge id=":gneJ359_0" function="internal">
        <lane id=":gneJ359_0_0" index="0" speed="13.89" length="0.17" shape="69.40,-331.27 69.41,-331.22 69.42,-331.19 69.42,-331.15 69.44,-331.10"/>
    </edge>
    <edge id=":gneJ360_0" function="internal">
        <lane id=":gneJ360_0_0" index="0" speed="13.89" length="0.23" shape="81.55,-280.61 81.57,-280.55 81.58,-280.50 81.59,-280.46 81.62,-280.39"/>
    </edge>
    <edge id=":gneJ361_0" function="internal">
        <lane id=":gneJ361_0_0" index="0" speed="13.89" length="0.26" shape="101.44,-230.85 101.46,-230.78 101.49,-230.74 101.51,-230.69 101.55,-230.63"/>
    </edge>
    <edge id=":gneJ362_0" function="internal">
        <lane id=":gneJ362_0_0" index="0" speed="13.89" length="0.25" shape="131.28,-181.07 131.32,-181.00 131.35,-180.96 131.38,-180.92 131.43,-180.86"/>
    </edge>
    <edge id=":gneJ363_0" function="internal">
        <lane id=":gneJ363_0_0" index="0" speed="13.89" length="0.38" shape="167.92,-137.38 167.99,-137.29 168.04,-137.23 168.10,-137.19 168.19,-137.12"/>
    </edge>
    <edge id=":gneJ364_0" function="internal">
        <lane id=":gneJ364_0_0" index="0" speed="13.89" length="0.15" shape="207.76,-107.88 207.79,-107.85 207.82,-107.83 207.84,-107.82 207.88,-107.79"/>
    </edge>
    <edge id=":gneJ365_0" function="internal">
        <lane id=":gneJ365_0_0" index="0" speed="13.89" length="0.31" shape="242.79,-86.71 242.87,-86.66 242.93,-86.63 242.99,-86.60 243.07,-86.57"/>
    </edge>
    <edge id=":gneJ366_0" function="internal">
        <lane id=":gneJ366_0_0" index="0" speed="13.89" length="0.25" shape="290.32,-69.43 290.39,-69.40 290.44,-69.39 290.49,-69.38 290.56,-69.36"/>
    </edge>
    <edge id=":gneJ367_0" function="internal">
        <lane id=":gneJ367_0_0" index="0" speed="13.89" length="0.24" shape="330.08,-61.67 330.15,-61.65 330.20,-61.65 330.24,-61.64 330.31,-61.64"/>
    </edge>
    <edge id=":gneJ368_0" function="internal">
        <lane id=":gneJ368_0_0" index="0" speed="13.89" length="0.10" shape="406.66,-58.25 406.72,-58.24"/>
    </edge>
    <edge id=":gneJ369_0" function="internal">
        <lane id=":gneJ369_0_0" index="0" speed="13.89" length="0.23" shape="420.00,21.67 419.93,21.66 419.88,21.65 419.84,21.65 419.77,21.65"/>
    </edge>
    <edge id=":gneJ370_0" function="internal">
        <lane id=":gneJ370_0_0" index="0" speed="13.89" length="0.10" shape="390.00,21.65 390.00,21.65"/>
    </edge>
    <edge id=":gneJ371_0" function="internal">
        <lane id=":gneJ371_0_0" index="0" speed="13.89" length="0.14" shape="420.14,41.65 420.00,41.66"/>
    </edge>
    <edge id=":gneJ372_0" function="internal">
        <lane id=":gneJ372_0_0" index="0" speed="13.89" length="0.29" shape="386.41,44.55 386.12,44.58"/>
    </edge>
    <edge id=":gneJ373_0" function="internal">
        <lane id=":gneJ373_0_0" index="0" speed="13.89" length="0.15" shape="420.23,61.63 420.19,61.64 420.16,61.64 420.13,61.65 420.08,61.65"/>
    </edge>
    <edge id=":gneJ374_0" function="internal">
        <lane id=":gneJ374_0_0" index="0" speed="13.89" length="0.19" shape="390.28,63.10 390.22,63.10 390.18,63.10 390.14,63.11 390.08,63.12"/>
    </edge>
    <edge id=":gneJ375_0" function="internal">
        <lane id=":gneJ375_0_0" index="0" speed="13.89" length="0.17" shape="350.17,21.65 350.12,21.65 350.09,21.65 350.05,21.65 350.00,21.66"/>
    </edge>
    <edge id=":gneJ376_0" function="internal">
        <lane id=":gneJ376_0_0" index="0" speed="13.89" length="0.29" shape="288.43,28.07 288.35,28.08 288.29,28.09 288.23,28.10 288.15,28.13"/>
    </edge>
    <edge id=":gneJ377_0" function="internal">
        <lane id=":gneJ377_0_0" index="0" speed="13.89" length="0.16" shape="254.16,38.00 254.11,38.01 254.08,38.02 254.05,38.03 254.01,38.05"/>
    </edge>
    <edge id=":gneJ378_0" function="internal">
        <lane id=":gneJ378_0_0" index="0" speed="13.89" length="0.33" shape="220.93,51.41 220.84,51.44 220.78,51.47 220.72,51.50 220.64,51.56"/>
    </edge>
    <edge id=":gneJ379_0" function="internal">
        <lane id=":gneJ379_0_0" index="0" speed="13.89" length="0.32" shape="191.18,71.19 191.11,71.25 191.05,71.29 191.01,71.33 190.94,71.39"/>
    </edge>
    <edge id=":gneJ380_0" function="internal">
        <lane id=":gneJ380_0_0" index="0" speed="13.89" length="0.32" shape="171.16,91.17 171.10,91.24 171.05,91.28 171.00,91.32 170.92,91.37"/>
    </edge>
    <edge id=":gneJ381_0" function="internal">
        <lane id=":gneJ381_0_0" index="0" speed="13.89" length="0.10" shape="140.91,111.37 140.84,111.42"/>
    </edge>
    <edge id=":gneJ382_0" function="internal">
        <lane id=":gneJ382_0_0" index="0" speed="13.89" length="0.44" shape="109.94,129.65 109.83,129.72 109.75,129.76 109.67,129.79 109.54,129.82"/>
    </edge>
    <edge id=":gneJ383_0" function="internal">
        <lane id=":gneJ383_0_0" index="0" speed="13.89" length="0.31" shape="70.42,140.27 70.33,140.29 70.27,140.30 70.21,140.31 70.12,140.32"/>
    </edge>
    <edge id=":gneJ384_0" function="internal">
        <lane id=":gneJ384_0_0" index="0" speed="13.89" length="0.37" shape="25.16,143.42 25.05,143.42 24.97,143.42 24.90,143.42 24.79,143.40"/>
    </edge>
    <edge id=":gneJ385_0" function="internal">
        <lane id=":gneJ385_0_0" index="0" speed="13.89" length="0.27" shape="-15.22,136.94 -15.30,136.93 -15.35,136.91 -15.40,136.90 -15.48,136.87"/>
    </edge>
    <edge id=":gneJ386_0" function="internal">
        <lane id=":gneJ386_0_0" index="0" speed="13.89" length="0.22" shape="-60.53,121.56 -60.60,121.54 -60.64,121.52 -60.68,121.51 -60.73,121.48"/>
    </edge>
    <edge id=":gneJ387_0" function="internal">
        <lane id=":gneJ387_0_0" index="0" speed="13.89" length="0.10" shape="-100.74,101.48 -100.74,101.48"/>
    </edge>
    <edge id=":gneJ388_0" function="internal">
        <lane id=":gneJ388_0_0" index="0" speed="13.89" length="0.35" shape="-140.42,81.64 -140.51,81.59 -140.58,81.56 -140.65,81.54 -140.75,81.51"/>
    </edge>
    <edge id=":gneJ389_0" function="internal">
        <lane id=":gneJ389_0_0" index="0" speed="13.89" length="0.19" shape="-180.27,71.63 -180.45,71.59"/>
    </edge>
    <edge id=":gneJ390_0" function="internal">
        <lane id=":gneJ390_0_0" index="0" speed="13.89" length="0.25" shape="-230.18,61.65 -230.42,61.60"/>
    </edge>
    <edge id=":gneJ391_0" function="internal">
        <lane id=":gneJ391_0_0" index="0" speed="13.89" length="0.20" shape="-290.07,51.66 -290.13,51.65 -290.17,51.65 -290.21,51.64 -290.27,51.64"/>
    </edge>
    <edge id=":gneJ392_0" function="internal">
        <lane id=":gneJ392_0_0" index="0" speed="13.89" length="0.16" shape="-408.93,46.79 -408.98,46.78 -409.01,46.78 -409.05,46.78 -409.09,46.79"/>
    </edge>
    <edge id=":gneJ393_0" function="internal">
        <lane id=":gneJ393_0_0" index="0" speed="13.89" length="0.18" shape="337.25,49.41 337.19,49.42 337.16,49.42 337.12,49.43 337.07,49.44"/>
    </edge>
    <edge id=":gneJ394_0" function="internal">
        <lane id=":gneJ394_0_0" index="0" speed="13.89" length="0.13" shape="290.92,59.38 290.79,59.41"/>
    </edge>
    <edge id=":gneJ395_0" function="internal">
        <lane id=":gneJ395_0_0" index="0" speed="13.89" length="0.27" shape="250.74,71.50 250.67,71.52 250.61,71.54 250.56,71.56 250.49,71.60"/>
    </edge>
    <edge id=":gneJ396_0" function="internal">
        <lane id=":gneJ396_0_0" index="0" speed="13.89" length="0.29" shape="211.00,91.34 210.92,91.38 210.87,91.41 210.82,91.44 210.76,91.50"/>
    </edge>
    <edge id=":gneJ397_0" function="internal">
        <lane id=":gneJ397_0_0" index="0" speed="13.89" length="0.10" shape="170.99,121.32 170.92,121.37"/>
    </edge>
    <edge id=":gneJ398_0" function="internal">
        <lane id=":gneJ398_0_0" index="0" speed="13.89" length="0.20" shape="140.91,141.37 140.86,141.41 140.83,141.43 140.79,141.45 140.74,141.47"/>
    </edge>
    <edge id=":gneJ399_0" function="internal">
        <lane id=":gneJ399_0_0" index="0" speed="13.89" length="0.29" shape="100.73,161.48 100.66,161.52 100.61,161.54 100.55,161.56 100.47,161.58"/>
    </edge>
    <edge id=":gneJ400_0" function="internal">
        <lane id=":gneJ400_0_0" index="0" speed="13.89" length="0.41" shape="63.38,172.47 63.26,172.51 63.18,172.53 63.10,172.53 62.97,172.54"/>
    </edge>
    <edge id=":gneJ401_0" function="internal">
        <lane id=":gneJ401_0_0" index="0" speed="13.89" length="0.60" shape="0.93,174.31 0.75,174.31 0.63,174.30 0.51,174.27 0.34,174.21"/>
    </edge>
    <edge id=":gneJ402_0" function="internal">
        <lane id=":gneJ402_0_0" index="0" speed="13.89" length="0.64" shape="-56.14,153.76 -56.32,153.69 -56.43,153.63 -56.54,153.56 -56.68,153.43"/>
    </edge>
    <edge id=":gneJ403_0" function="internal">
        <lane id=":gneJ403_0_0" index="0" speed="13.89" length="0.84" shape="-101.13,112.54 -101.31,112.36 -101.41,112.23 -101.49,112.08 -101.57,111.84"/>
    </edge>
    <edge id=":gneJ404_0" function="internal">
        <lane id=":gneJ404_0_0" index="0" speed="13.89" length="0.68" shape="-118.48,58.46 -118.53,58.26 -118.56,58.13 -118.56,57.99 -118.54,57.79"/>
    </edge>
    <edge id=":gneJ405_0" function="internal">
        <lane id=":gneJ405_0_0" index="0" speed="13.89" length="0.33" shape="-111.64,-0.20 -111.63,-0.30 -111.61,-0.36 -111.60,-0.43 -111.57,-0.52"/>
    </edge>
    <edge id=":gneJ406_0" function="internal">
        <lane id=":gneJ406_0_0" index="0" speed="13.89" length="0.23" shape="-91.56,-60.53 -91.54,-60.59 -91.53,-60.63 -91.51,-60.67 -91.48,-60.73"/>
    </edge>
    <edge id=":gneJ407_0" function="internal">
        <lane id=":gneJ407_0_0" index="0" speed="13.89" length="0.17" shape="-71.55,-100.59 -71.53,-100.63 -71.52,-100.66 -71.50,-100.69 -71.49,-100.74"/>
    </edge>
    <edge id=":gneJ408_0" function="internal">
        <lane id=":gneJ408_0_0" index="0" speed="13.89" length="0.18" shape="-41.61,-180.41 -41.59,-180.46 -41.58,-180.49 -41.57,-180.53 -41.56,-180.58"/>
    </edge>
    <edge id=":gneJ409_0" function="internal">
        <lane id=":gneJ409_0_0" index="0" speed="13.89" length="0.23" shape="-31.66,-220.18 -31.64,-220.24 -31.63,-220.29 -31.62,-220.33 -31.62,-220.40"/>
    </edge>
    <edge id=":gneJ410_0" function="internal">
        <lane id=":gneJ410_0_0" index="0" speed="13.89" length="0.10" shape="-25.18,-281.94 -25.19,-281.85"/>
    </edge>
    <edge id=":gneJ411_0" function="internal">
        <lane id=":gneJ411_0_0" index="0" speed="13.89" length="0.34" shape="-18.75,-410.23 -18.74,-410.33 -18.74,-410.40 -18.75,-410.47 -18.76,-410.57"/>
    </edge>
    <edge id=":gneJ412_0" function="internal">
        <lane id=":gneJ412_0_0" index="0" speed="13.89" length="0.26" shape="340.43,71.60 340.17,71.65"/>
    </edge>
    <edge id=":gneJ413_0" function="internal">
        <lane id=":gneJ413_0_0" index="0" speed="13.89" length="0.20" shape="290.52,81.58 290.46,81.59 290.42,81.60 290.39,81.61 290.33,81.63"/>
    </edge>
    <edge id=":gneJ414_0" function="internal">
        <lane id=":gneJ414_0_0" index="0" speed="13.89" length="0.23" shape="260.74,91.49 260.68,91.51 260.63,91.53 260.59,91.55 260.53,91.58"/>
    </edge>
    <edge id=":gneJ415_0" function="internal">
        <lane id=":gneJ415_0_0" index="0" speed="13.89" length="0.20" shape="220.92,111.39 220.87,111.41 220.83,111.43 220.80,111.45 220.75,111.49"/>
    </edge>
    <edge id=":gneJ416_0" function="internal">
        <lane id=":gneJ416_0_0" index="0" speed="13.89" length="0.10" shape="190.92,131.37 190.99,131.32"/>
    </edge>
    <edge id=":gneJ417_0" function="internal">
        <lane id=":gneJ417_0_0" index="0" speed="13.89" length="0.49" shape="151.39,161.02 151.28,161.11 151.20,161.17 151.14,161.25 151.05,161.37"/>
    </edge>
    <edge id=":gneJ418_0" function="internal">
        <lane id=":gneJ418_0_0" index="0" speed="13.89" length="0.31" shape="101.52,230.70 101.47,230.78 101.44,230.83 101.41,230.89 101.37,230.97"/>
    </edge>
    <edge id=":gneJ419_0" function="internal">
        <lane id=":gneJ419_0_0" index="0" speed="13.89" length="0.43" shape="79.47,278.96 79.42,279.08 79.39,279.16 79.37,279.24 79.35,279.37"/>
    </edge>
    <edge id=":gneJ420_0" function="internal">
        <lane id=":gneJ420_0_0" index="0" speed="13.89" length="0.45" shape="65.94,361.14 65.92,361.28 65.91,361.37 65.92,361.46 65.93,361.59"/>
    </edge>
    <edge id=":gneJ421_0" function="internal">
        <lane id=":gneJ421_0_0" index="0" speed="13.89" length="0.39" shape="71.64,409.81 71.65,409.93 71.66,410.01 71.65,410.08 71.64,410.20"/>
    </edge>
    <edge id=":gneJ422_0" function="internal">
        <lane id=":gneJ422_0_0" index="0" speed="13.89" length="0.36" shape="-11.68,410.16 -11.67,410.05 -11.67,409.98 -11.67,409.91 -11.68,409.80"/>
    </edge>
    <edge id=":gneJ423_0" function="internal">
        <lane id=":gneJ423_0_0" index="0" speed="13.89" length="0.27" shape="-14.73,379.84 -14.75,379.57"/>
    </edge>
    <edge id=":gneJ424_0" function="internal">
        <lane id=":gneJ424_0_0" index="0" speed="13.89" length="0.35" shape="-31.65,410.36 -31.65,410.25 -31.65,410.18 -31.67,410.11 -31.69,410.01"/>
    </edge>
    <edge id=":gneJ425_0" function="internal">
        <lane id=":gneJ425_0_0" index="0" speed="13.89" length="0.11" shape="-38.25,380.35 -38.27,380.25"/>
    </edge>
    <edge id=":gneJ426_0" function="internal">
        <lane id=":gneJ426_0_0" index="0" speed="13.89" length="0.24" shape="-51.62,410.35 -51.65,410.11"/>
    </edge>
    <edge id=":gneJ427_0" function="internal">
        <lane id=":gneJ427_0_0" index="0" speed="13.89" length="0.26" shape="-56.56,379.48 -56.60,379.23"/>
    </edge>
    <edge id=":gneJ428_0" function="internal">
        <lane id=":gneJ428_0_0" index="0" speed="13.89" length="0.27" shape="-21.62,290.40 -21.63,290.32 -21.64,290.27 -21.65,290.21 -21.67,290.13"/>
    </edge>
    <edge id=":gneJ429_0" function="internal">
        <lane id=":gneJ429_0_0" index="0" speed="13.89" length="0.35" shape="-31.51,250.75 -31.54,250.65 -31.56,250.58 -31.59,250.51 -31.64,250.42"/>
    </edge>
    <edge id=":gneJ430_0" function="internal">
        <lane id=":gneJ430_0_0" index="0" speed="13.89" length="0.29" shape="-51.34,211.00 -51.38,210.92 -51.41,210.87 -51.44,210.82 -51.50,210.76"/>
    </edge>
    <edge id=":gneJ431_0" function="internal">
        <lane id=":gneJ431_0_0" index="0" speed="13.89" length="0.10" shape="-81.32,170.99 -81.37,170.92"/>
    </edge>
    <edge id=":gneJ432_0" function="internal">
        <lane id=":gneJ432_0_0" index="0" speed="13.89" length="0.43" shape="-121.38,110.91 -121.45,110.80 -121.49,110.73 -121.52,110.65 -121.56,110.53"/>
    </edge>
    <edge id=":gneJ433_0" function="internal">
        <lane id=":gneJ433_0_0" index="0" speed="13.89" length="0.42" shape="-131.57,80.52 -131.61,80.40 -131.63,80.32 -131.64,80.23 -131.65,80.11"/>
    </edge>
    <edge id=":gneJ434_0" function="internal">
        <lane id=":gneJ434_0_0" index="0" speed="13.89" length="0.43" shape="-135.54,16.20 -135.54,16.08 -135.54,15.99 -135.53,15.90 -135.51,15.78"/>
    </edge>
    <edge id=":gneJ435_0" function="internal">
        <lane id=":gneJ435_0_0" index="0" speed="13.89" length="0.41" shape="-123.82,-40.34 -123.80,-40.46 -123.78,-40.54 -123.74,-40.62 -123.69,-40.73"/>
    </edge>
    <edge id=":gneJ436_0" function="internal">
        <lane id=":gneJ436_0_0" index="0" speed="13.89" length="0.15" shape="-97.75,-93.07 -97.73,-93.11 -97.71,-93.14 -97.70,-93.17 -97.69,-93.21"/>
    </edge>
    <edge id=":gneJ437_0" function="internal">
        <lane id=":gneJ437_0_0" index="0" speed="13.89" length="0.19" shape="-67.63,-172.17 -67.61,-172.23 -67.60,-172.26 -67.59,-172.30 -67.57,-172.36"/>
    </edge>
    <edge id=":gneJ438_0" function="internal">
        <lane id=":gneJ438_0_0" index="0" speed="13.89" length="0.10" shape="-58.50,-209.07 -58.52,-208.98"/>
    </edge>
    <edge id=":gneJ439_0" function="internal">
        <lane id=":gneJ439_0_0" index="0" speed="13.89" length="0.13" shape="-48.55,-261.94 -48.53,-262.07"/>
    </edge>
    <edge id=":gneJ440_0" function="internal">
        <lane id=":gneJ440_0_0" index="0" speed="13.89" length="0.10" shape="-43.41,-311.50 -43.42,-311.41"/>
    </edge>
    <edge id=":gneJ441_0" function="internal">
        <lane id=":gneJ441_0_0" index="0" speed="13.89" length="0.13" shape="-38.73,-409.94 -38.73,-410.08"/>
    </edge>
    <edge id=":gneJ442_0" function="internal">
        <lane id=":gneJ442_0_0" index="0" speed="13.89" length="0.13" shape="-48.51,312.32 -48.54,312.20"/>
    </edge>
    <edge id=":gneJ443_0" function="internal">
        <lane id=":gneJ443_0_0" index="0" speed="13.89" length="0.26" shape="-59.78,263.73 -59.80,263.65 -59.81,263.60 -59.83,263.55 -59.86,263.48"/>
    </edge>
    <edge id=":gneJ444_0" function="internal">
        <lane id=":gneJ444_0_0" index="0" speed="13.89" length="0.46" shape="-81.35,211.06 -81.40,210.93 -81.44,210.85 -81.50,210.77 -81.58,210.67"/>
    </edge>
    <edge id=":gneJ445_0" function="internal">
        <lane id=":gneJ445_0_0" index="0" speed="13.89" length="0.22" shape="-121.29,161.03 -121.33,160.98 -121.36,160.94 -121.38,160.91 -121.41,160.85"/>
    </edge>
    <edge id=":gneJ446_0" function="internal">
        <lane id=":gneJ446_0_0" index="0" speed="13.89" length="0.35" shape="-151.42,110.84 -151.47,110.75 -151.50,110.69 -151.53,110.63 -151.56,110.53"/>
    </edge>
    <edge id=":gneJ447_0" function="internal">
        <lane id=":gneJ447_0_0" index="0" speed="13.89" length="0.25" shape="-161.57,80.52 -161.59,80.45 -161.60,80.40 -161.61,80.35 -161.63,80.27"/>
    </edge>
    <edge id=":gneJ448_0" function="internal">
        <lane id=":gneJ448_0_0" index="0" speed="13.89" length="0.52" shape="-169.86,30.26 -169.88,30.11 -169.89,30.00 -169.88,29.89 -169.86,29.74"/>
    </edge>
    <edge id=":gneJ449_0" function="internal">
        <lane id=":gneJ449_0_0" index="0" speed="13.89" length="0.48" shape="-161.63,-20.28 -161.60,-20.42 -161.58,-20.51 -161.54,-20.60 -161.48,-20.73"/>
    </edge>
    <edge id=":gneJ450_0" function="internal">
        <lane id=":gneJ450_0_0" index="0" speed="13.89" length="0.52" shape="-141.47,-60.75 -141.40,-60.88 -141.35,-60.97 -141.28,-61.05 -141.17,-61.16"/>
    </edge>
    <edge id=":gneJ451_0" function="internal">
        <lane id=":gneJ451_0_0" index="0" speed="13.89" length="0.77" shape="-101.16,-101.18 -100.99,-101.33 -100.87,-101.43 -100.73,-101.50 -100.51,-101.57"/>
    </edge>
    <edge id=":gneJ452_0" function="internal">
        <lane id=":gneJ452_0_0" index="0" speed="13.89" length="0.66" shape="-50.05,-117.60 -49.86,-117.65 -49.73,-117.68 -49.60,-117.68 -49.40,-117.66"/>
    </edge>
    <edge id=":gneJ453_0" function="internal">
        <lane id=":gneJ453_0_0" index="0" speed="13.89" length="0.35" shape="10.17,-111.64 10.28,-111.63 10.35,-111.62 10.42,-111.60 10.52,-111.57"/>
    </edge>
    <edge id=":gneJ454_0" function="internal">
        <lane id=":gneJ454_0_0" index="0" speed="13.89" length="0.23" shape="70.53,-91.56 70.59,-91.54 70.63,-91.53 70.67,-91.51 70.73,-91.48"/>
    </edge>
    <edge id=":gneJ455_0" function="internal">
        <lane id=":gneJ455_0_0" index="0" speed="13.89" length="0.13" shape="110.62,-71.54 110.74,-71.48"/>
    </edge>
    <edge id=":gneJ456_0" function="internal">
        <lane id=":gneJ456_0_0" index="0" speed="13.89" length="0.22" shape="160.41,-51.61 160.47,-51.59 160.51,-51.58 160.55,-51.56 160.61,-51.55"/>
    </edge>
    <edge id=":gneJ457_0" function="internal">
        <lane id=":gneJ457_0_0" index="0" speed="13.89" length="0.19" shape="200.27,-41.63 200.45,-41.59"/>
    </edge>
    <edge id=":gneJ458_0" function="internal">
        <lane id=":gneJ458_0_0" index="0" speed="13.89" length="0.25" shape="250.18,-31.65 250.42,-31.60"/>
    </edge>
    <edge id=":gneJ459_0" function="internal">
        <lane id=":gneJ459_0_0" index="0" speed="13.89" length="0.26" shape="310.01,-21.67 310.08,-21.66 310.14,-21.65 310.19,-21.65 310.27,-21.65"/>
    </edge>
    <edge id=":gneJ460_0" function="internal">
        <lane id=":gneJ460_0_0" index="0" speed="13.89" length="0.10" shape="370.00,-21.65 370.00,-21.65"/>
    </edge>
    <edge id=":gneJ461_0" function="internal">
        <lane id=":gneJ461_0_0" index="0" speed="13.89" length="0.20" shape="409.80,-21.65 409.86,-21.65 409.90,-21.65 409.94,-21.66 410.00,-21.66"/>
    </edge>
    <edge id=":gneJ462_0" function="internal">