<?xml version="1.0" encoding="UTF-8"?>

<!-- generated on 16/05/2018 13:59:10 by Netedit Version 0.32.0
<?xml version="1.0" encoding="UTF-8"?>

<configuration xmlns:xsi="http://www.w3.org/2001/XMLSchema-instance" xsi:noNamespaceSchemaLocation="http://sumo.dlr.de/xsd/netconvertConfiguration.xsd">

    <input>
        <sumo-net-file value="C:\Users\Abel\Documents\School\Year%202\Project%202-2\map.xml"/>
    </input>

    <output>
        <output-file value="C:\Users\Abel\Documents\School\Year%202\Project%202-2\Blauwdorp.net.xml"/>
        <plain-output-prefix value="C:\Users\Abel\Documents\School\Year%202\Project%202-2\Blauwdorp"/>
    </output>

    <processing>
        <no-turnarounds value="true"/>
        <offset.disable-normalization value="true"/>
        <lefthand value="false"/>
        <junctions.corner-detail value="0"/>
        <rectangular-lane-cut value="false"/>
        <walkingareas value="false"/>
    </processing>

</configuration>
-->

<edges version="0.27" xmlns:xsi="http://www.w3.org/2001/XMLSchema-instance" xsi:noNamespaceSchemaLocation="http://sumo.dlr.de/xsd/edges_file.xsd">
    <edge id="-109868517#0" from="894174119" to="1256687064" priority="1" type="highway.cycleway" numLanes="1" speed="5.56" width="1.00" allow="bicycle"/>
    <edge id="-109868517#1" from="894174116" to="894174119" priority="1" type="highway.cycleway" numLanes="1" speed="5.56" width="1.00" allow="bicycle"/>
    <edge id="-109868517#2" from="41965724" to="894174116" priority="1" type="highway.cycleway" numLanes="1" speed="5.56" width="1.00" allow="bicycle"/>
    <edge id="-109889825" from="1256908096" to="1256908098" priority="4" type="highway.residential" numLanes="1" speed="8.33" disallow="tram rail_urban rail rail_electric ship"/>
    <edge id="-131357940" from="41972899" to="963535297" priority="5" type="highway.unclassified" numLanes="1" speed="13.89" disallow="tram rail_urban rail rail_electric ship"/>
    <edge id="-131357942" from="41973372" to="294900556" priority="4" type="highway.residential" numLanes="1" speed="13.89" disallow="tram rail_urban rail rail_electric ship"/>
    <edge id="-131426324" from="41965804" to="41965884" priority="9" type="highway.primary" numLanes="2" speed="13.89" disallow="tram rail_urban rail rail_electric ship"/>
    <edge id="-143878765" from="352968004" to="41972991" priority="7" type="highway.secondary" numLanes="2" speed="13.89" shape="528.52,905.47 481.49,897.91 472.56,896.66" disallow="tram rail_urban rail rail_electric ship"/>
    <edge id="-148641162#0" from="41968088" to="41967726" priority="6" type="highway.tertiary" numLanes="1" speed="13.89" disallow="tram rail_urban rail rail_electric ship"/>
    <edge id="-148641162#1" from="41968610" to="41968088" priority="6" type="highway.tertiary" numLanes="1" speed="13.89" disallow="tram rail_urban rail rail_electric ship"/>
    <edge id="-153190730" from="307393173" to="1659051740" priority="1" type="highway.cycleway" numLanes="1" speed="5.56" shape="230.82,683.78 308.82,723.28 322.30,700.58 327.47,699.06 352.53,706.38 366.31,715.67 375.31,723.54 382.16,730.23 390.14,735.04 396.75,736.20 404.07,737.63 418.93,741.59 427.92,749.07 431.41,757.12 431.67,765.62 425.03,781.96 401.14,829.12" width="1.00" allow="bicycle"/>
    <edge id="-176151124" from="352968004" to="1867085994" priority="1" type="highway.cycleway" numLanes="1" speed="5.56" width="1.00" allow="bicycle"/>
    <edge id="-177687070" from="3512428674" to="41966620" priority="9" type="highway.primary" numLanes="2" speed="13.89" disallow="tram rail_urban rail rail_electric ship"/>
    <edge id="-177687071" from="5335187809" to="41965884" priority="9" type="highway.primary" numLanes="2" speed="13.89" shape="763.08,294.43 732.26,282.02 722.18,278.05" disallow="tram rail_urban rail rail_electric ship"/>
    <edge id="-177687072" from="41965884" to="41965723" priority="5" type="highway.unclassified" numLanes="1" speed="13.89" shape="722.18,278.05 725.13,270.33 726.61,261.41" disallow="tram rail_urban rail rail_electric ship"/>
    <edge id="-179152157" from="352968004" to="41973206" priority="4" type="highway.residential" numLanes="1" speed="8.33" disallow="tram rail_urban rail rail_electric ship"/>
    <edge id="-179577972" from="307393172" to="1899737964" priority="2" type="highway.service" numLanes="1" speed="5.56" shape="199.64,741.53 185.77,734.33 199.35,708.29 213.59,715.68" allow="delivery bicycle pedestrian"/>
    <edge id="-182048581#0" from="601257982" to="352968004" priority="7" type="highway.secondary" numLanes="2" speed="13.89" shape="606.87,919.48 540.78,907.66 528.52,905.47" disallow="tram rail_urban rail rail_electric ship"/>
    <edge id="-182048581#1" from="41973290" to="601257982" priority="7" type="highway.secondary" numLanes="2" speed="13.89" disallow="tram rail_urban rail rail_electric ship"/>
    <edge id="-182142597" from="41972558" to="954186922" priority="1" type="highway.cycleway" numLanes="1" speed="5.56" width="1.00" allow="bicycle"/>
    <edge id="-195578175#0" from="610303273" to="41965724" priority="1" type="highway.cycleway" numLanes="1" speed="5.56" width="1.00" allow="bicycle"/>
    <edge id="-195578175#1" from="41966347" to="610303273" priority="1" type="highway.cycleway" numLanes="1" speed="5.56" shape="1265.47,340.88 1251.31,326.74 1238.29,299.25 1234.63,279.69" width="1.00" allow="bicycle"/>
    <edge id="-195578175#2" from="41966438" to="41966347" priority="1" type="highway.cycleway" numLanes="1" speed="5.56" width="1.00" allow="bicycle"/>
    <edge id="-200186206#0" from="5282685712" to="2101830116" priority="2" type="highway.service" numLanes="1" speed="13.89" allow="delivery bicycle pedestrian"/>
    <edge id="-200186206#1" from="41973404" to="5282685712" priority="2" type="highway.service" numLanes="1" speed="13.89" allow="delivery bicycle pedestrian"/>
    <edge id="-200186208#0" from="4235574177" to="945849806" priority="2" type="highway.service" numLanes="1" speed="13.89" allow="delivery bicycle pedestrian"/>
    <edge id="-200186208#1" from="2264504396" to="4235574177" priority="2" type="highway.service" numLanes="1" speed="13.89" allow="delivery bicycle pedestrian"/>
    <edge id="-200186569" from="603858891" to="1923905789" priority="2" type="highway.service" numLanes="1" speed="13.89" allow="delivery bicycle pedestrian"/>
    <edge id="-200186570#0" from="603858895" to="603858892" priority="2" type="highway.service" numLanes="1" speed="13.89" shape="432.04,895.16 436.54,895.14 441.74,895.24 446.15,895.62 457.86,897.50" allow="delivery bicycle pedestrian"/>
    <edge id="-200186570#1" from="1923905789" to="603858895" priority="2" type="highway.service" numLanes="1" speed="13.89" shape="415.08,899.95 420.59,897.89 426.71,896.03 432.04,895.16" allow="delivery bicycle pedestrian"/>
    <edge id="-214164533" from="41967412" to="5002887686" priority="4" type="highway.residential" numLanes="1" speed="8.33" shape="912.41,406.91 912.37,395.05 913.89,378.62 915.83,368.58" disallow="tram rail_urban rail rail_electric ship"/>
    <edge id="-214704503#0" from="603858895" to="2241878913" priority="1" type="highway.cycleway" numLanes="1" speed="5.56" width="1.00" allow="bicycle"/>
    <edge id="-214704503#1" from="2241878921" to="603858895" priority="1" type="highway.cycleway" numLanes="1" speed="5.56" width="1.00" allow="bicycle"/>
    <edge id="-217153260" from="2101830116" to="2264504396" priority="2" type="highway.service" numLanes="1" speed="13.89" allow="delivery bicycle pedestrian"/>
    <edge id="-229915458#0" from="2384505574" to="762121188" priority="2" type="highway.service" numLanes="1" speed="5.56" shape="381.05,866.63 373.20,873.35 363.10,881.99 351.60,889.02" allow="delivery bicycle pedestrian"/>
    <edge id="-229915458#1" from="954186906" to="2384505574" priority="2" type="highway.service" numLanes="1" speed="5.56" allow="delivery bicycle pedestrian"/>
    <edge id="-26792666#0" from="762121077" to="41973621" priority="2" type="highway.service" numLanes="1" speed="5.56" allow="delivery bicycle pedestrian"/>
    <edge id="-26792666#1" from="293909881" to="762121077" priority="2" type="highway.service" numLanes="1" speed="5.56" shape="239.37,875.93 237.58,884.91 234.47,900.41" allow="delivery bicycle pedestrian"/>
    <edge id="-276658162" from="41965187" to="41965804" priority="9" type="highway.primary" numLanes="2" speed="13.89" shape="548.90,209.51 634.48,243.43 701.36,269.97" disallow="tram rail_urban rail rail_electric ship"/>
    <edge id="-27993169#0" from="1899737964" to="307393172" priority="2" type="highway.service" numLanes="1" speed="5.56" allow="delivery bicycle pedestrian"/>
    <edge id="-27993169#1" from="307393173" to="1899737964" priority="2" type="highway.service" numLanes="1" speed="5.56" allow="delivery bicycle pedestrian"/>
    <edge id="-27993169#2" from="41969799" to="307393173" priority="2" type="highway.service" numLanes="1" speed="5.56" shape="348.66,602.92 339.58,609.81 335.83,611.08 315.36,613.17 278.59,626.17 257.04,640.23 230.82,683.78" allow="delivery bicycle pedestrian"/>
    <edge id="-28118135#0" from="308855014" to="762121090" priority="2" type="highway.service" numLanes="1" speed="5.56" shape="219.79,821.30 233.95,828.80 216.91,859.53 224.78,895.62" allow="delivery bicycle pedestrian"/>
    <edge id="-28118135#1" from="762121090" to="308855014" priority="2" type="highway.service" numLanes="1" speed="5.56" shape="224.78,895.62 202.45,884.42 190.20,877.54 219.79,821.30" allow="delivery bicycle pedestrian"/>
    <edge id="-28118135#2" from="762121077" to="762121090" priority="2" type="highway.service" numLanes="1" speed="5.56" allow="delivery bicycle pedestrian"/>
    <edge id="-31138878#0" from="41968003" to="41967957" priority="6" type="highway.tertiary" numLanes="1" speed="8.33" disallow="tram rail_urban rail rail_electric ship"/>
    <edge id="-31138878#1" from="610303238" to="41968003" priority="6" type="highway.tertiary" numLanes="1" speed="8.33" disallow="tram rail_urban rail rail_electric ship"/>
    <edge id="-31138878#2" from="41968513" to="610303238" priority="6" type="highway.tertiary" numLanes="1" speed="8.33" disallow="tram rail_urban rail rail_electric ship"/>
    <edge id="-31138878#3" from="41968784" to="41968513" priority="6" type="highway.tertiary" numLanes="1" speed="8.33" disallow="tram rail_urban rail rail_electric ship"/>
    <edge id="-350131854#0" from="5335188323" to="3558867310" priority="2" type="highway.service" numLanes="1" speed="5.56" shape="820.57,263.05 818.69,265.34 802.09,289.29 816.23,296.52 814.24,302.60" allow="delivery bicycle pedestrian"/>
    <edge id="-350131854#1" from="305350829" to="5335188323" priority="2" type="highway.service" numLanes="1" speed="5.56" allow="delivery bicycle pedestrian"/>
    <edge id="-350131856#0" from="305350833" to="305350831" priority="2" type="highway.service" numLanes="1" speed="5.56" shape="900.03,291.58 906.88,274.04 893.95,258.92" allow="delivery bicycle pedestrian"/>
    <edge id="-350131856#1" from="4536356747" to="305350833" priority="2" type="highway.service" numLanes="1" speed="5.56" shape="938.72,308.13 928.66,303.88 900.03,291.58" allow="delivery bicycle pedestrian"/>
    <edge id="-377073560#0" from="4536356747" to="3804362746" priority="7" type="highway.secondary" numLanes="2" speed="13.89" disallow="tram rail_urban rail rail_electric ship"/>
    <edge id="-377073560#1" from="840618093" to="4536356747" priority="7" type="highway.secondary" numLanes="2" speed="13.89" shape="921.58,348.40 934.58,317.86 938.72,308.13" disallow="tram rail_urban rail rail_electric ship"/>
    <edge id="-40271394#0" from="1016048707" to="41965348" priority="7" type="highway.secondary" numLanes="2" speed="13.89" shape="957.84,265.08 961.05,256.52 962.49,240.64 962.97,230.61" disallow="tram rail_urban rail rail_electric ship"/>
    <edge id="-40271394#1" from="3804362746" to="1016048707" priority="7" type="highway.secondary" numLanes="2" speed="13.89" disallow="tram rail_urban rail rail_electric ship"/>
    <edge id="-40349308" from="41971464" to="41971024" priority="1" type="highway.cycleway" numLanes="1" speed="5.56" shape="477.88,746.28 469.82,742.37 447.86,712.78" width="1.00" allow="bicycle"/>
    <edge id="-424084911" from="4235574166" to="4235574991" priority="1" type="highway.cycleway" numLanes="1" speed="5.56" shape="797.43,988.20 797.65,990.29 805.77,1000.18" width="1.00" allow="bicycle"/>
    <edge id="-424084915#0" from="5282685712" to="4915236013" priority="1" type="highway.cycleway" numLanes="1" speed="5.56" shape="761.71,954.91 768.50,956.11 772.92,958.61 776.68,962.95" width="1.00" allow="bicycle"/>
    <edge id="-424084915#1" from="4915236010" to="5282685712" priority="1" type="highway.cycleway" numLanes="1" speed="5.56" width="1.00" allow="bicycle"/>
    <edge id="-424084916#0" from="4235574177" to="601643781" priority="1" type="highway.cycleway" numLanes="1" speed="5.56" width="1.00" allow="bicycle"/>
    <edge id="-424084916#1" from="4235574991" to="4235574177" priority="1" type="highway.cycleway" numLanes="1" speed="5.56" width="1.00" allow="bicycle"/>
    <edge id="-44683385" from="295065948" to="295065947" priority="5" type="highway.unclassified" numLanes="1" speed="13.89" shape="1080.08,768.82 1074.07,786.77 1073.36,796.39 1071.22,806.36" disallow="tram rail_urban rail rail_electric ship"/>
    <edge id="-457496616#0" from="5335188322" to="305350829" priority="2" type="highway.service" numLanes="1" speed="5.56" shape="881.32,246.32 870.97,236.01 860.29,225.37 836.96,243.09" allow="delivery bicycle pedestrian"/>
    <edge id="-457496616#1" from="305350831" to="5335188322" priority="2" type="highway.service" numLanes="1" speed="5.56" allow="delivery bicycle pedestrian"/>
    <edge id="-464918869" from="4599663886" to="1280309373" priority="1" type="highway.cycleway" numLanes="1" speed="5.56" shape="395.56,867.46 389.44,873.72 350.60,914.96 350.65,923.90" width="1.00" allow="bicycle"/>
    <edge id="-47252499" from="602122007" to="602121990" priority="4" type="highway.residential" numLanes="1" speed="13.89" disallow="tram rail_urban rail rail_electric ship"/>
    <edge id="-47252525#0" from="41968642" to="602122080" priority="4" type="highway.residential" numLanes="1" speed="8.33" shape="1121.56,539.53 1110.94,534.70 1100.63,527.65 1067.16,503.28" disallow="tram rail_urban rail rail_electric ship"/>
    <edge id="-47252525#1" from="41968859" to="41968642" priority="4" type="highway.residential" numLanes="1" speed="8.33" shape="1186.81,555.88 1151.81,547.68 1121.56,539.53" disallow="tram rail_urban rail rail_electric ship"/>
    <edge id="-47252537" from="240523264" to="41967102" priority="4" type="highway.residential" numLanes="1" speed="13.89" disallow="tram rail_urban rail rail_electric ship"/>
    <edge id="-47307829" from="602610851" to="602610824" priority="4" type="highway.residential" numLanes="1" speed="13.89" disallow="tram rail_urban rail rail_electric ship"/>
    <edge id="-47448001" from="603858892" to="41972991" priority="2" type="highway.service" numLanes="1" speed="13.89" allow="delivery bicycle pedestrian"/>
    <edge id="-478356158" from="3512428674" to="840618093" priority="7" type="highway.secondary" numLanes="2" speed="13.89" disallow="tram rail_urban rail rail_electric ship"/>
    <edge id="-478356159#0" from="5522554994" to="41968256" priority="4" type="highway.residential" numLanes="1" speed="8.33" shape="926.95,637.29 926.09,625.86 919.86,509.23" disallow="tram rail_urban rail rail_electric ship"/>
    <edge id="-478356159#1" from="41970083" to="5522554994" priority="4" type="highway.residential" numLanes="1" speed="8.33" disallow="tram rail_urban rail rail_electric ship"/>
    <edge id="-478356160" from="41967792" to="41968313" priority="4" type="highway.residential" numLanes="1" speed="8.33" disallow="tram rail_urban rail rail_electric ship"/>
    <edge id="-47987369" from="610323290" to="610323294" priority="2" type="highway.service" numLanes="1" speed="5.56" allow="delivery bicycle pedestrian"/>
    <edge id="-500479831" from="4915236010" to="4750865571" priority="1" type="highway.cycleway" numLanes="1" speed="5.56" width="1.00" allow="bicycle"/>
    <edge id="-501250971" from="4921134828" to="1256908100" priority="4" type="highway.residential" numLanes="1" speed="8.33" disallow="tram rail_urban rail rail_electric ship"/>
    <edge id="-511459955" from="5002887684" to="5002887681" priority="2" type="highway.service" numLanes="1" speed="5.56" shape="304.15,336.02 335.35,339.49 340.01,326.70 314.46,310.29" allow="delivery bicycle pedestrian"/>
    <edge id="-534984554" from="5186876689" to="41973766" priority="2" type="highway.service" numLanes="1" speed="5.56" allow="delivery bicycle pedestrian"/>
    <edge id="-552622784" from="41966620" to="5335187805" priority="9" type="highway.primary" numLanes="2" speed="13.89" disallow="tram rail_urban rail rail_electric ship"/>
    <edge id="-552622786" from="305350833" to="5335187814" priority="2" type="highway.service" numLanes="1" speed="5.56" shape="900.03,291.58 884.46,334.68 882.37,340.40" allow="delivery bicycle pedestrian"/>
    <edge id="-552622789" from="5335188322" to="5335188321" priority="2" type="highway.service" numLanes="1" speed="5.56" allow="delivery bicycle pedestrian"/>
    <edge id="-575553787" from="5522599223" to="5522599221" priority="2" type="highway.service" numLanes="1" speed="5.56" allow="delivery bicycle pedestrian"/>
    <edge id="-60892298#0" from="293909881" to="293909889" priority="2" type="highway.service" numLanes="1" speed="5.56" allow="delivery bicycle pedestrian"/>
    <edge id="-60892298#1" from="762121188" to="293909881" priority="2" type="highway.service" numLanes="1" speed="5.56" shape="351.60,889.02 325.80,885.33 287.96,869.40 262.28,854.90 255.74,852.59 250.23,854.10 243.74,860.15 241.44,866.07 239.76,871.79 239.37,875.93" allow="delivery bicycle pedestrian"/>
    <edge id="-60892298#2" from="293909889" to="762121188" priority="2" type="highway.service" numLanes="1" speed="5.56" shape="251.78,884.34 263.63,891.86 278.26,898.52 291.40,903.27 305.48,906.21 318.78,907.14 329.80,905.63 351.60,889.02" allow="delivery bicycle pedestrian"/>
    <edge id="-70462728" from="840621535" to="840621534" priority="1" type="highway.cycleway" numLanes="1" speed="5.56" width="1.00" allow="bicycle"/>
    <edge id="-70462729" from="840621536" to="840621537" priority="1" type="highway.cycleway" numLanes="1" speed="5.56" width="1.00" allow="bicycle"/>
    <edge id="-70462730#0" from="840621539" to="840621533" priority="1" type="highway.cycleway" numLanes="1" speed="5.56" width="1.00" allow="bicycle"/>
    <edge id="-70462730#1" from="840621538" to="840621539" priority="1" type="highway.cycleway" numLanes="1" speed="5.56" width="1.00" allow="bicycle"/>
    <edge id="-70462731" from="840621541" to="840621540" priority="1" type="highway.cycleway" numLanes="1" speed="5.56" width="1.00" allow="bicycle"/>
    <edge id="-7126647" from="41966438" to="41966330" priority="4" type="highway.residential" numLanes="1" speed="13.89" disallow="tram rail_urban rail rail_electric ship"/>
    <edge id="-7126838" from="41968859" to="41968003" priority="4" type="highway.residential" numLanes="1" speed="8.33" shape="1186.81,555.88 1195.85,542.43 1229.26,489.55" disallow="tram rail_urban rail rail_electric ship"/>
    <edge id="-7126848#0" from="610303221" to="41966438" priority="4" type="highway.residential" numLanes="1" speed="13.89" disallow="tram rail_urban rail rail_electric ship"/>
    <edge id="-7126848#1" from="41967957" to="610303221" priority="4" type="highway.residential" numLanes="1" speed="13.89" disallow="tram rail_urban rail rail_electric ship"/>
    <edge id="-7126891" from="41974427" to="5186876689" priority="2" type="highway.service" numLanes="1" speed="5.56" shape="1231.14,1047.82 1234.40,1035.69 1238.57,1017.32 1239.74,1002.79" allow="delivery bicycle pedestrian"/>
    <edge id="-7126980" from="41967957" to="41967828" priority="6" type="highway.tertiary" numLanes="1" speed="8.33" disallow="tram rail_urban rail rail_electric ship"/>
    <edge id="-7127037" from="41965723" to="41962269" priority="5" type="highway.unclassified" numLanes="1" speed="13.89" shape="726.61,261.41 726.73,256.78 724.90,252.60 697.18,215.53 672.88,183.25 645.56,158.94 590.38,118.40 572.72,99.95 557.72,79.86 543.36,54.36 517.84,0.00" disallow="tram rail_urban rail rail_electric ship"/>
    <edge id="-7127044" from="41965906" to="41965732" priority="4" type="highway.residential" numLanes="1" speed="8.33" disallow="tram rail_urban rail rail_electric ship"/>
    <edge id="-7127055#0" from="41967580" to="41967331" priority="4" type="highway.residential" numLanes="1" speed="8.33" disallow="tram rail_urban rail rail_electric ship"/>
    <edge id="-7127055#1" from="41967792" to="41967580" priority="4" type="highway.residential" numLanes="1" speed="8.33" disallow="tram rail_urban rail rail_electric ship"/>
    <edge id="-7127056" from="41968313" to="41968256" priority="4" type="highway.residential" numLanes="1" speed="8.33" shape="905.63,507.38 910.80,509.41 919.86,509.23" disallow="tram rail_urban rail rail_electric ship"/>
    <edge id="-7127058" from="41968312" to="41968221" priority="5" type="highway.unclassified" numLanes="1" speed="13.89" shape="496.57,490.16 488.95,486.54 484.18,481.92" disallow="tram rail_urban rail rail_electric ship"/>
    <edge id="-7127062#0" from="41967891" to="41967412" priority="4" type="highway.residential" numLanes="1" speed="8.33" disallow="tram rail_urban rail rail_electric ship"/>
    <edge id="-7127062#1" from="41968256" to="41967891" priority="4" type="highway.residential" numLanes="1" speed="8.33" disallow="tram rail_urban rail rail_electric ship"/>
    <edge id="-7127063" from="41971528" to="41971464" priority="6" type="highway.tertiary" numLanes="1" speed="13.89" shape="448.69,757.95 456.64,757.19 464.81,755.05 471.43,751.40 477.88,746.28" disallow="tram rail_urban rail rail_electric ship"/>
    <edge id="-7127064" from="41971528" to="41971190" priority="5" type="highway.unclassified" numLanes="1" speed="13.89" shape="448.69,757.95 448.37,752.30 446.83,744.28 444.85,737.19 441.39,727.03" disallow="tram rail_urban rail rail_electric ship"/>
    <edge id="-7127065#0" from="41969188" to="41968610" priority="6" type="highway.tertiary" numLanes="1" speed="13.89" disallow="tram rail_urban rail rail_electric ship"/>
    <edge id="-7127065#1" from="41970060" to="41969188" priority="6" type="highway.tertiary" numLanes="1" speed="13.89" shape="540.70,627.57 557.63,594.40 575.08,563.66" disallow="tram rail_urban rail rail_electric ship"/>
    <edge id="-7127065#2" from="41970545" to="41970060" priority="6" type="highway.tertiary" numLanes="1" speed="13.89" disallow="tram rail_urban rail rail_electric ship"/>
    <edge id="-7127065#3" from="41971464" to="41970545" priority="6" type="highway.tertiary" numLanes="1" speed="13.89" shape="477.88,746.28 483.87,736.81 512.28,682.94" disallow="tram rail_urban rail rail_electric ship"/>
    <edge id="-7127069#0" from="41970721" to="41970060" priority="3" type="highway.living_street" numLanes="1" speed="4.17" disallow="tram rail_urban rail rail_electric ship"/>
    <edge id="-7127069#1" from="41971382" to="41970721" priority="3" type="highway.living_street" numLanes="1" speed="4.17" disallow="tram rail_urban rail rail_electric ship"/>
    <edge id="-7127071#0" from="41967054" to="41966590" priority="4" type="highway.residential" numLanes="1" speed="8.33" disallow="tram rail_urban rail rail_electric ship"/>
    <edge id="-7127071#1" from="41967138" to="41967054" priority="4" type="highway.residential" numLanes="1" speed="8.33" disallow="tram rail_urban rail rail_electric ship"/>
    <edge id="-7127071#2" from="41967569" to="41967138" priority="4" type="highway.residential" numLanes="1" speed="8.33" disallow="tram rail_urban rail rail_electric ship"/>
    <edge id="-7127071#3" from="41967726" to="41967569" priority="4" type="highway.residential" numLanes="1" speed="8.33" disallow="tram rail_urban rail rail_electric ship"/>
    <edge id="-7127073#0" from="41969799" to="41971190" priority="4" type="highway.residential" numLanes="1" speed="8.33" shape="348.66,602.92 436.30,718.10 441.39,727.03" disallow="tram rail_urban rail rail_electric ship"/>
    <edge id="-7127073#1" from="41968056" to="41969799" priority="4" type="highway.residential" numLanes="1" speed="8.33" shape="237.50,458.09 307.22,545.76 348.66,602.92" disallow="tram rail_urban rail rail_electric ship"/>
    <edge id="-7127073#2" from="41968324" to="41968056" priority="4" type="highway.residential" numLanes="1" speed="8.33" shape="52.45,475.66 83.25,459.63 149.64,436.42 173.17,431.22 192.39,431.38 204.70,433.96 215.51,438.40 224.91,444.60 233.99,453.48 237.50,458.09" disallow="tram rail_urban rail rail_electric ship"/>
    <edge id="-7127075" from="41967054" to="41966215" priority="4" type="highway.residential" numLanes="1" speed="8.33" disallow="tram rail_urban rail rail_electric ship"/>
    <edge id="-7127077" from="41967083" to="41966213" priority="4" type="highway.residential" numLanes="1" speed="8.33" shape="445.31,368.08 447.58,363.71 448.65,353.73 446.86,344.76 443.18,333.47 436.48,319.89 427.68,307.08 415.69,295.66" disallow="tram rail_urban rail rail_electric ship"/>
    <edge id="-7127082#0" from="41970721" to="41970163" priority="3" type="highway.living_street" numLanes="1" speed="4.17" shape="671.53,699.17 692.69,658.09 700.43,642.53" disallow="tram rail_urban rail rail_electric ship"/>
    <edge id="-7127082#1" from="41971441" to="41970721" priority="3" type="highway.living_street" numLanes="1" speed="4.17" shape="639.36,754.47 655.75,726.36 671.53,699.17" disallow="tram rail_urban rail rail_electric ship"/>
    <edge id="-7127082#2" from="41972295" to="41971441" priority="3" type="highway.living_street" numLanes="1" speed="4.17" disallow="tram rail_urban rail rail_electric ship"/>
    <edge id="-7127087#0" from="41971441" to="41970545" priority="3" type="highway.living_street" numLanes="1" speed="4.17" disallow="tram rail_urban rail rail_electric ship"/>
    <edge id="-7127087#1" from="41972089" to="41971441" priority="3" type="highway.living_street" numLanes="1" speed="4.17" disallow="tram rail_urban rail rail_electric ship"/>
    <edge id="-7127088" from="41971902" to="41971528" priority="6" type="highway.tertiary" numLanes="1" speed="13.89" shape="439.03,792.55 446.90,770.78 448.19,765.16 448.69,757.95" disallow="tram rail_urban rail rail_electric ship"/>
    <edge id="-7127089#0" from="41969424" to="41968523" priority="4" type="highway.residential" numLanes="1" speed="8.33" shape="421.67,573.17 418.44,565.26 411.06,554.97 374.82,504.68" disallow="tram rail_urban rail rail_electric ship"/>
    <edge id="-7127089#1" from="41969657" to="41969424" priority="4" type="highway.residential" numLanes="1" speed="8.33" disallow="tram rail_urban rail rail_electric ship"/>
    <edge id="-7127094" from="41967256" to="41967083" priority="4" type="highway.residential" numLanes="1" speed="8.33" disallow="tram rail_urban rail rail_electric ship"/>
    <edge id="-7127096" from="41969511" to="41969029" priority="4" type="highway.residential" numLanes="1" speed="8.33" disallow="tram rail_urban rail rail_electric ship"/>
    <edge id="-7127102" from="610323294" to="41968859" priority="2" type="highway.service" numLanes="1" speed="5.56" shape="1155.54,622.71 1167.14,597.97 1174.00,583.04 1186.81,555.88" allow="delivery bicycle pedestrian"/>
    <edge id="-7127108" from="41967891" to="954187052" priority="4" type="highway.residential" numLanes="1" speed="8.33" shape="916.09,452.93 852.40,424.95 851.20,421.71 856.63,409.88" disallow="tram rail_urban rail rail_electric ship"/>
    <edge id="-7127115" from="954187052" to="41967412" priority="4" type="highway.residential" numLanes="1" speed="8.33" shape="856.63,409.88 865.93,390.12 868.32,389.39 912.41,406.91" disallow="tram rail_urban rail rail_electric ship"/>
    <edge id="-7127123" from="5002887686" to="3512428674" priority="5" type="highway.unclassified" numLanes="1" speed="13.89" disallow="tram rail_urban rail rail_electric ship"/>
    <edge id="-7127125#0" from="41967369" to="41967083" priority="4" type="highway.residential" numLanes="1" speed="8.33" shape="371.10,381.72 383.99,384.46 399.79,385.09 410.40,384.45 420.77,383.07 431.34,380.77 437.26,378.04 441.55,374.62 445.31,368.08" disallow="tram rail_urban rail rail_electric ship"/>
    <edge id="-7127125#1" from="41967255" to="41967369" priority="4" type="highway.residential" numLanes="1" speed="8.33" disallow="tram rail_urban rail rail_electric ship"/>
    <edge id="-7127125#2" from="41967050" to="41967255" priority="4" type="highway.residential" numLanes="1" speed="8.33" disallow="tram rail_urban rail rail_electric ship"/>
    <edge id="-7127131#0" from="1659051740" to="41972449" priority="2" type="highway.service" numLanes="1" speed="5.56" shape="401.14,829.12 405.54,834.65 409.17,844.42" allow="delivery bicycle pedestrian"/>
    <edge id="-7127131#1" from="2384505574" to="1659051740" priority="2" type="highway.service" numLanes="1" speed="5.56" shape="381.05,866.63 376.44,865.11 361.55,859.05 356.85,856.04 352.63,851.36 350.91,845.52 350.74,838.89 352.47,830.04 359.17,820.27 365.75,813.83 374.27,811.91 380.69,813.15 392.68,821.51 401.14,829.12" allow="delivery bicycle pedestrian"/>
    <edge id="-7127136" from="41974092" to="41973697" priority="4" type="highway.residential" numLanes="1" speed="13.89" disallow="tram rail_urban rail rail_electric ship"/>
    <edge id="-7127143#0" from="41973290" to="41973193" priority="4" type="highway.residential" numLanes="1" speed="13.89" disallow="tram rail_urban rail rail_electric ship"/>