<?xml version="1.0" encoding="UTF-8"?>

<!-- generated on 16/05/2018 13:59:10 by Netedit Version 0.32.0
<?xml version="1.0" encoding="UTF-8"?>

<configuration xmlns:xsi="http://www.w3.org/2001/XMLSchema-instance" xsi:noNamespaceSchemaLocation="http://sumo.dlr.de/xsd/netconvertConfiguration.xsd">

    <input>
        <sumo-net-file value="C:\Users\Abel\Documents\School\Year%202\Project%202-2\map.xml"/>
    </input>

    <output>
        <output-file value="C:\Users\Abel\Documents\School\Year%202\Project%202-2\Blauwdorp.net.xml"/>
        <plain-output-prefix value="C:\Users\Abel\Documents\School\Year%202\Project%202-2\Blauwdorp"/>
    </output>

    <processing>
        <no-turnarounds value="true"/>
        <offset.disable-normalization value="true"/>
        <lefthand value="false"/>
        <junctions.corner-detail value="0"/>
        <rectangular-lane-cut value="false"/>
        <walkingareas value="false"/>
    </processing>

</configuration>
-->

<nodes version="0.27" xmlns:xsi="http://www.w3.org/2001/XMLSchema-instance" xsi:noNamespaceSchemaLocation="http://sumo.dlr.de/xsd/nodes_file.xsd">
    <location netOffset="-687675.23,-5635538.76" convBoundary="0.00,0.00,1433.74,1450.61" origBoundary="5.666161,50.840910,5.697525,50.853722" projParameter="+proj=utm +zone=31 +ellps=WGS84 +datum=WGS84 +units=m +no_defs"/>

    <node id="1016048504" x="1027.81" y="387.98" type="priority"/>
    <node id="1016048510" x="1068.64" y="391.32" type="priority"/>
    <node id="1016048514" x="1090.28" y="383.92" type="priority"/>
    <node id="1016048516" x="1103.63" y="378.92" type="priority"/>
    <node id="1016048707" x="957.84" y="265.08" type="priority"/>
    <node id="1232580150" x="845.11" y="932.46" type="priority"/>
    <node id="1256687064" x="1219.63" y="255.48" type="priority"/>
    <node id="1256908096" x="940.72" y="910.78" type="right_before_left"/>
    <node id="1256908098" x="986.46" y="927.77" type="right_before_left"/>
    <node id="1256908100" x="961.94" y="847.41" type="right_before_left"/>
    <node id="1280309373" x="350.65" y="923.90" type="priority"/>
    <node id="1480212347" x="1119.03" y="436.06" type="priority"/>
    <node id="1480212348" x="1071.93" y="450.25" type="priority"/>
    <node id="1480212349" x="1087.42" y="458.33" type="priority"/>
    <node id="1480212351" x="1112.77" y="449.11" type="priority"/>
    <node id="1480212352" x="1064.53" y="426.67" type="priority"/>
    <node id="1659051740" x="401.14" y="829.12" type="priority"/>
    <node id="1867085994" x="530.06" y="896.92" type="priority"/>
    <node id="1867085999" x="667.17" y="938.73" type="priority"/>
    <node id="1899737964" x="213.59" y="715.68" type="right_before_left"/>
    <node id="1923905789" x="415.08" y="899.95" type="priority"/>
    <node id="2101830116" x="763.55" y="959.19" type="priority"/>
    <node id="2241878913" x="429.29" y="883.13" type="priority"/>
    <node id="2241878921" x="434.18" y="903.92" type="priority"/>
    <node id="2264401657" x="820.27" y="989.65" type="priority"/>
    <node id="2264504396" x="801.72" y="1003.76" type="priority"/>
    <node id="2335042585" x="763.86" y="815.58" type="priority"/>
    <node id="2384505571" x="421.31" y="826.14" type="priority"/>
    <node id="2384505572" x="432.15" y="829.11" type="priority"/>
    <node id="2384505574" x="381.05" y="866.63" type="right_before_left"/>
    <node id="240523264" x="1127.86" y="393.61" type="priority"/>
    <node id="2477853166" x="225.26" y="1057.92" type="dead_end"/>
    <node id="2816675680" x="1216.84" y="899.19" type="priority"/>
    <node id="2816675681" x="1216.72" y="901.06" type="priority"/>
    <node id="293906131" x="1164.82" y="307.11" type="priority"/>
    <node id="293906135" x="1164.08" y="320.54" type="priority"/>
    <node id="293906376" x="1151.36" y="335.22" type="priority"/>
    <node id="293907971" x="434.59" y="878.35" type="priority"/>
    <node id="293909881" x="239.37" y="875.93" type="right_before_left"/>
    <node id="293909889" x="251.78" y="884.34" type="priority"/>
    <node id="294900556" x="748.87" y="936.03" type="priority"/>
    <node id="295016878" x="902.01" y="688.85" type="priority"/>
    <node id="295016967" x="934.67" y="705.81" type="traffic_light" tl="295016967"/>
    <node id="295017024" x="909.68" y="675.14" type="right_before_left"/>
    <node id="295017078" x="941.61" y="693.62" type="traffic_light" tl="295017078"/>
    <node id="295064735" x="239.92" y="1085.63" type="priority"/>
    <node id="295065201" x="859.95" y="949.14" type="priority"/>
    <node id="295065644" x="1107.28" y="991.14" type="priority"/>
    <node id="295065947" x="1071.22" y="806.36" type="priority"/>
    <node id="295065948" x="1080.08" y="768.82" type="priority"/>
    <node id="296371254" x="1204.47" y="913.36" type="dead_end"/>
    <node id="296371809" x="1256.56" y="927.08" type="priority"/>
    <node id="296371811" x="1245.64" y="926.23" type="priority"/>
    <node id="296371876" x="1281.28" y="847.12" type="dead_end"/>
    <node id="296371878" x="1299.20" y="903.43" type="priority"/>
    <node id="297523688" x="1297.61" y="317.79" type="dead_end"/>
    <node id="305350829" x="836.96" y="243.09" type="priority"/>
    <node id="305350831" x="893.95" y="258.92" type="priority"/>
    <node id="305350833" x="900.03" y="291.58" type="right_before_left"/>
    <node id="307393172" x="199.64" y="741.53" type="priority"/>
    <node id="307393173" x="230.82" y="683.78" type="priority"/>
    <node id="308855014" x="219.79" y="821.30" type="priority"/>
    <node id="3089353221" x="1353.68" y="199.15" type="dead_end"/>
    <node id="3512428674" x="918.60" y="357.40" type="traffic_light" tl="3512428674"/>
    <node id="352771010" x="775.75" y="806.02" type="priority"/>
    <node id="352771011" x="744.20" y="832.45" type="priority"/>
    <node id="352968004" x="528.52" y="905.47" type="priority"/>
    <node id="355862388" x="1293.69" y="930.33" type="priority"/>
    <node id="3558867310" x="814.24" y="302.60" type="priority"/>
    <node id="360683107" x="872.11" y="965.26" type="priority"/>
    <node id="3804362746" x="945.13" y="293.98" type="priority"/>
    <node id="3804363375" x="945.59" y="364.59" type="priority"/>
    <node id="3804363395" x="1043.60" y="508.76" type="priority"/>
    <node id="3804363398" x="1199.52" y="295.07" type="priority"/>
    <node id="41962269" x="517.84" y="0.00" type="priority"/>
    <node id="41964493" x="821.56" y="162.85" type="priority"/>
    <node id="41964969" x="121.82" y="172.92" type="dead_end"/>
    <node id="41965085" x="276.91" y="184.95" type="priority"/>
    <node id="41965140" x="373.53" y="196.54" type="priority"/>
    <node id="41965187" x="548.90" y="209.51" type="priority"/>
    <node id="41965348" x="962.97" y="230.61" type="priority"/>
    <node id="41965422" x="1243.30" y="247.85" type="dead_end"/>
    <node id="41965473" x="184.58" y="210.59" type="right_before_left"/>
    <node id="41965501" x="411.95" y="221.14" type="right_before_left"/>
    <node id="41965541" x="1248.69" y="254.72" type="dead_end"/>
    <node id="41965723" x="726.61" y="261.41" type="priority"/>
    <node id="41965724" x="1234.13" y="276.07" type="priority"/>
    <node id="41965732" x="277.12" y="243.99" type="right_before_left"/>
    <node id="41965763" x="462.39" y="253.03" type="right_before_left"/>
    <node id="41965780" x="521.75" y="258.04" type="right_before_left"/>
    <node id="41965804" x="701.36" y="269.97" type="priority"/>
    <node id="41965818" x="201.32" y="249.06" type="right_before_left"/>
    <node id="41965884" x="722.18" y="278.05" type="traffic_light" tl="41965884"/>
    <node id="41965906" x="333.53" y="262.73" type="right_before_left"/>
    <node id="41966072" x="506.73" y="284.80" type="right_before_left"/>
    <node id="41966103" x="386.16" y="282.23" type="right_before_left"/>
    <node id="41966213" x="415.69" y="295.66" type="right_before_left"/>
    <node id="41966215" x="579.46" y="298.94" type="right_before_left"/>
    <node id="41966257" x="254.97" y="291.06" type="right_before_left"/>
    <node id="41966330" x="1175.28" y="333.31" type="priority"/>
    <node id="41966339" x="441.24" y="308.67" type="right_before_left"/>
    <node id="41966347" x="1265.47" y="340.88" type="priority"/>
    <node id="41966368" x="249.64" y="302.00" type="right_before_left"/>
    <node id="41966411" x="858.44" y="334.95" type="priority"/>
    <node id="41966438" x="1261.42" y="349.35" type="priority"/>
    <node id="41966590" x="479.22" y="332.41" type="right_before_left"/>
    <node id="41966619" x="635.28" y="338.22" type="right_before_left"/>
    <node id="41966620" x="904.73" y="351.54" type="priority"/>
    <node id="41966671" x="692.43" y="345.09" type="priority"/>
    <node id="41967008" x="678.88" y="370.13" type="priority"/>
    <node id="41967050" x="295.64" y="357.25" type="right_before_left"/>
    <node id="41967054" x="535.16" y="368.22" type="right_before_left"/>
    <node id="41967083" x="445.31" y="368.08" type="right_before_left"/>
    <node id="41967102" x="1121.86" y="388.88" type="priority"/>
    <node id="41967138" x="549.90" y="378.93" type="right_before_left"/>
    <node id="41967247" x="805.00" y="389.79" type="right_before_left"/>
    <node id="41967254" x="118.17" y="365.38" type="priority"/>
    <node id="41967255" x="331.42" y="369.21" type="right_before_left"/>
    <node id="41967256" x="456.22" y="373.54" type="right_before_left"/>
    <node id="41967292" x="215.85" y="369.07" type="priority"/>
    <node id="41967331" x="668.08" y="391.80" type="priority"/>
    <node id="41967334" x="1039.98" y="403.20" type="priority"/>
    <node id="41967355" x="1058.58" y="410.68" type="priority"/>
    <node id="41967369" x="371.10" y="381.72" type="right_before_left"/>
    <node id="41967412" x="912.41" y="406.91" type="right_before_left"/>
    <node id="41967423" x="1070.19" y="413.91" type="priority"/>
    <node id="41967551" x="1055.56" y="419.10" type="priority"/>
    <node id="41967569" x="596.92" y="406.47" type="right_before_left"/>
    <node id="41967580" x="730.49" y="416.26" type="right_before_left"/>
    <node id="41967681" x="1144.45" y="447.71" type="priority"/>
    <node id="41967726" x="646.34" y="433.51" type="priority"/>
    <node id="41967743" x="190.06" y="410.05" type="right_before_left"/>
    <node id="41967792" x="776.37" y="433.92" type="priority"/>
    <node id="41967817" x="1143.95" y="455.88" type="priority"/>
    <node id="41967828" x="1149.93" y="455.80" type="priority"/>
    <node id="41967838" x="1124.61" y="450.61" type="priority"/>
    <node id="41967890" x="463.18" y="438.86" type="right_before_left"/>
    <node id="41967891" x="916.09" y="452.93" type="right_before_left"/>
    <node id="41967926" x="1073.98" y="476.09" type="priority"/>
    <node id="41967932" x="1064.84" y="471.19" type="priority"/>
    <node id="41967957" x="1203.86" y="479.00" type="priority"/>
    <node id="41968003" x="1229.26" y="489.55" type="priority"/>
    <node id="41968052" x="251.76" y="457.93" type="right_before_left"/>
    <node id="41968056" x="237.50" y="458.09" type="right_before_left"/>
    <node id="41968062" x="38.41" y="452.44" type="priority"/>
    <node id="41968065" x="506.48" y="469.37" type="right_before_left"/>
    <node id="41968088" x="624.62" y="473.21" type="priority"/>
    <node id="41968139" x="756.26" y="488.18" type="priority"/>
    <node id="41968221" x="484.18" y="481.92" type="priority"/>
    <node id="41968256" x="919.86" y="509.23" type="right_before_left"/>
    <node id="41968312" x="496.57" y="490.16" type="priority"/>
    <node id="41968313" x="905.63" y="507.38" type="right_before_left"/>
    <node id="41968324" x="52.45" y="475.66" type="priority"/>
    <node id="41968325" x="548.77" y="492.47" type="priority"/>
    <node id="41968375" x="682.98" y="504.96" type="right_before_left"/>
    <node id="41968440" x="278.06" y="490.22" type="priority"/>
    <node id="41968462" x="811.03" y="518.70" type="right_before_left"/>
    <node id="41968513" x="1350.84" y="542.99" type="priority"/>
    <node id="41968523" x="374.82" y="504.68" type="right_before_left"/>
    <node id="41968602" x="483.28" y="516.99" type="right_before_left"/>
    <node id="41968610" x="598.86" y="519.85" type="priority"/>
    <node id="41968642" x="1121.56" y="539.53" type="right_before_left"/>
    <node id="41968781" x="346.60" y="526.32" type="right_before_left"/>
    <node id="41968784" x="1394.47" y="569.86" type="priority"/>
    <node id="41968859" x="1186.81" y="555.88" type="priority"/>
    <node id="41968882" x="526.47" y="538.94" type="right_before_left"/>
    <node id="41968900" x="877.83" y="555.94" type="right_before_left"/>
    <node id="41968913" x="150.49" y="529.96" type="priority"/>
    <node id="41969029" x="787.54" y="560.22" type="right_before_left"/>
    <node id="41969057" x="321.20" y="545.04" type="right_before_left"/>
    <node id="41969188" x="575.08" y="563.66" type="priority"/>
    <node id="41969361" x="723.80" y="581.92" type="priority"/>
    <node id="41969424" x="421.67" y="573.17" type="right_before_left"/>
    <node id="41969511" x="853.99" y="596.75" type="right_before_left"/>
    <node id="41969641" x="762.97" y="603.65" type="right_before_left"/>
    <node id="41969657" x="421.77" y="589.87" type="right_before_left"/>
    <node id="41969687" x="632.43" y="599.02" type="right_before_left"/>
    <node id="41969797" x="56.60" y="590.18" type="priority"/>
    <node id="41969799" x="348.66" y="602.92" type="priority"/>
    <node id="41970048" x="828.81" y="639.83" type="right_before_left"/>
    <node id="41970057" x="444.50" y="624.09" type="right_before_left"/>
    <node id="41970060" x="540.70" y="627.57" type="priority"/>
    <node id="41970083" x="927.45" y="643.93" type="priority"/>
    <node id="41970163" x="700.43" y="642.53" type="priority"/>
    <node id="41970191" x="119.45" y="623.74" type="right_before_left"/>
    <node id="41970201" x="454.61" y="636.70" type="right_before_left"/>
    <node id="41970209" x="951.16" y="675.75" type="priority"/>
    <node id="41970300" x="154.82" y="642.63" type="priority"/>
    <node id="41970345" x="404.62" y="654.93" type="right_before_left"/>
    <node id="41970374" x="905.64" y="682.53" type="right_before_left"/>
    <node id="41970523" x="950.73" y="698.91" type="traffic_light" tl="41970523"/>
    <node id="41970545" x="512.28" y="682.94" type="priority"/>
    <node id="41970559" x="1272.09" y="713.67" type="priority"/>
    <node id="41970589" x="797.06" y="696.98" type="right_before_left"/>
    <node id="41970721" x="671.53" y="699.17" type="right_before_left"/>
    <node id="41970723" x="943.75" y="710.52" type="traffic_light" tl="41970723"/>
    <node id="41970863" x="884.22" y="720.41" type="priority"/>
    <node id="41970995" x="1001.81" y="735.60" type="right_before_left"/>
    <node id="41971024" x="447.86" y="712.78" type="priority"/>
    <node id="41971055" x="1017.87" y="741.66" type="right_before_left"/>
    <node id="41971190" x="441.39" y="727.03" type="right_before_left"/>
    <node id="41971315" x="766.78" y="750.37" type="priority"/>
    <node id="41971356" x="1064.08" y="761.94" type="right_before_left"/>
    <node id="41971382" x="766.30" y="751.25" type="priority"/>
    <node id="41971441" x="639.36" y="754.47" type="right_before_left"/>
    <node id="41971464" x="477.88" y="746.28" type="priority"/>
    <node id="41971528" x="448.69" y="757.95" type="priority"/>
    <node id="41971588" x="811.84" y="775.44" type="priority"/>
    <node id="41971902" x="439.03" y="792.55" type="priority"/>
    <node id="41971986" x="1230.72" y="821.25" type="priority"/>
    <node id="41972023" x="515.08" y="791.07" type="priority"/>
    <node id="41972037" x="1243.39" y="825.97" type="priority"/>
    <node id="41972089" x="731.68" y="809.27" type="priority"/>
    <node id="41972295" x="613.92" y="827.50" type="priority"/>
    <node id="41972311" x="718.08" y="834.38" type="priority"/>
    <node id="41972360" x="717.18" y="839.91" type="priority"/>
    <node id="41972368" x="452.68" y="830.21" type="priority"/>
    <node id="41972393" x="1297.02" y="884.67" type="priority"/>
    <node id="41972434" x="416.30" y="842.92" type="priority"/>
    <node id="41972449" x="409.17" y="844.42" type="priority"/>
    <node id="41972460" x="426.33" y="844.86" type="priority"/>
    <node id="41972461" x="720.33" y="852.14" type="priority"/>
    <node id="41972558" x="451.64" y="854.67" type="priority"/>
    <node id="41972591" x="703.28" y="865.61" type="right_before_left"/>
    <node id="41972802" x="623.99" y="873.15" type="priority"/>
    <node id="41972812" x="438.76" y="869.39" type="priority"/>
    <node id="41972899" x="473.35" y="881.99" type="priority"/>
    <node id="41972949" x="1227.15" y="910.77" type="priority"/>
    <node id="41972991" x="472.56" y="896.66" type="priority"/>
    <node id="41973018" x="421.14" y="886.45" type="priority"/>
    <node id="41973061" x="1301.48" y="931.07" type="priority"/>
    <node id="41973065" x="1225.24" y="924.90" type="priority"/>
    <node id="41973100" x="1288.29" y="929.67" type="priority"/>
    <node id="41973106" x="834.10" y="915.35" type="priority"/>
    <node id="41973124" x="445.43" y="905.28" type="priority"/>
    <node id="41973125" x="607.66" y="910.35" type="priority"/>
    <node id="41973193" x="670.37" y="922.53" type="priority"/>
    <node id="41973206" x="527.34" y="914.71" type="priority"/>
    <node id="41973290" x="668.77" y="930.58" type="priority"/>
    <node id="41973305" x="605.41" y="928.12" type="priority"/>
    <node id="41973342" x="0.00" y="913.08" type="dead_end"/>
    <node id="41973359" x="854.73" y="942.80" type="priority"/>
    <node id="41973372" x="747.15" y="943.76" type="priority"/>
    <node id="41973404" x="757.79" y="945.82" type="priority"/>
    <node id="41973445" x="746.27" y="952.32" type="priority"/>
    <node id="41973494" x="791.81" y="962.78" type="priority"/>
    <node id="41973613" x="918.57" y="972.64" type="priority"/>
    <node id="41973621" x="223.04" y="948.04" type="priority"/>
    <node id="41973672" x="967.96" y="981.48" type="priority"/>
    <node id="41973697" x="333.70" y="960.64" type="priority"/>
    <node id="41973700" x="518.68" y="966.89" type="right_before_left"/>
    <node id="41973733" x="1318.96" y="998.05" type="dead_end"/>
    <node id="41973761" x="1221.39" y="995.17" type="priority"/>
    <node id="41973766" x="1240.34" y="995.41" type="priority"/>
    <node id="41973773" x="1157.71" y="993.98" type="priority"/>
    <node id="41973777" x="810.50" y="979.74" type="priority"/>
    <node id="41973928" x="262.55" y="977.57" type="priority"/>
    <node id="41974092" x="343.39" y="985.61" type="priority"/>
    <node id="41974205" x="335.20" y="993.36" type="priority"/>
    <node id="41974243" x="281.60" y="996.86" type="priority"/>
    <node id="41974283" x="684.80" y="1017.07" type="right_before_left"/>
    <node id="41974337" x="289.97" y="1006.08" type="priority"/>
    <node id="41974343" x="355.89" y="1008.28" type="priority"/>
    <node id="41974391" x="399.16" y="1013.98" type="priority"/>
    <node id="41974427" x="1231.14" y="1047.82" type="priority"/>
    <node id="41974778" x="950.64" y="1065.07" type="priority"/>
    <node id="41974854" x="207.43" y="1047.73" type="priority"/>
    <node id="41974922" x="1123.56" y="1079.56" type="priority"/>
    <node id="41974994" x="729.89" y="1070.14" type="priority"/>
    <node id="41975245" x="588.07" y="1092.77" type="right_before_left"/>
    <node id="41975309" x="499.92" y="1090.69" type="dead_end"/>
    <node id="41975432" x="573.77" y="1104.29" type="dead_end"/>
    <node id="4235574163" x="830.91" y="924.40" type="priority"/>
    <node id="4235574164" x="820.21" y="919.96" type="priority"/>
    <node id="4235574166" x="797.43" y="988.20" type="right_before_left"/>
    <node id="4235574167" x="830.61" y="985.85" type="priority"/>
    <node id="4235574177" x="805.81" y="1004.03" type="priority"/>
    <node id="4235574178" x="844.93" y="976.85" type="priority"/>
    <node id="4235574184" x="837.50" y="927.38" type="right_before_left"/>
    <node id="4235574188" x="778.05" y="936.10" type="priority"/>
    <node id="4235574989" x="810.12" y="989.86" type="priority"/>
    <node id="4235574991" x="805.77" y="1000.18" type="priority"/>
    <node id="4235574998" x="811.64" y="916.27" type="priority"/>
    <node id="4334868212" x="1069.12" y="247.11" type="dead_end"/>
    <node id="4456221718" x="1112.40" y="922.64" type="dead_end"/>
    <node id="4456221723" x="1211.08" y="914.85" type="dead_end"/>
    <node id="4456221728" x="1086.46" y="850.77" type="dead_end"/>
    <node id="4536356747" x="938.72" y="308.13" type="priority"/>
    <node id="4557162374" x="1089.28" y="359.38" type="dead_end"/>
    <node id="4599663886" x="395.56" y="867.46" type="priority"/>
    <node id="4705875184" x="1110.79" y="371.90" type="priority"/>
    <node id="4705875186" x="1104.51" y="329.40" type="dead_end"/>
    <node id="4750865571" x="743.30" y="966.42" type="priority"/>
    <node id="4776847632" x="974.71" y="233.76" type="dead_end"/>
    <node id="4915236009" x="777.40" y="945.85" type="priority"/>
    <node id="4915236010" x="757.95" y="954.24" type="right_before_left"/>
    <node id="4915236011" x="777.04" y="954.41" type="priority"/>
    <node id="4915236013" x="776.68" y="962.95" type="right_before_left"/>
    <node id="4921127387" x="1120.10" y="695.98" type="dead_end"/>
    <node id="4921134828" x="990.62" y="859.84" type="priority"/>
    <node id="4921134829" x="1012.18" y="870.27" type="priority"/>
    <node id="4921141680" x="1266.61" y="727.17" type="priority"/>
    <node id="4931004192" x="1283.42" y="458.20" type="dead_end"/>
    <node id="5002887681" x="314.46" y="310.29" type="priority"/>
    <node id="5002887684" x="304.15" y="336.02" type="priority"/>
    <node id="5002887686" x="915.83" y="368.58" type="priority"/>
    <node id="5186876689" x="1239.74" y="1002.79" type="priority"/>
    <node id="520588966" x="1188.99" y="1450.61" type="dead_end"/>
    <node id="5282685712" x="761.71" y="954.91" type="priority"/>
    <node id="5311097763" x="1111.56" y="390.81" type="priority"/>
    <node id="5335187805" x="886.83" y="343.59" type="priority"/>
    <node id="5335187807" x="811.66" y="309.78" type="priority"/>
    <node id="5335187809" x="763.08" y="294.43" type="priority"/>
    <node id="5335187814" x="882.37" y="340.40" type="priority"/>
    <node id="5335188321" x="869.89" y="256.94" type="priority"/>
    <node id="5335188322" x="881.32" y="246.32" type="right_before_left"/>
    <node id="5335188323" x="820.57" y="263.05" type="right_before_left"/>
    <node id="5335188324" x="834.56" y="254.08" type="dead_end"/>
    <node id="5335188325" x="830.48" y="269.85" type="dead_end"/>
    <node id="5335188326" x="831.47" y="270.30" type="dead_end"/>
    <node id="5335188327" x="823.99" y="265.61" type="dead_end"/>
    <node id="5335188329" x="833.23" y="265.73" type="dead_end"/>
    <node id="5375629300" x="948.90" y="382.02" type="priority"/>
    <node id="5522554994" x="926.95" y="637.29" type="right_before_left"/>
    <node id="5522554995" x="954.44" y="652.60" type="priority"/>
    <node id="5522599221" x="981.35" y="707.89" type="priority"/>
    <node id="5522599223" x="1008.55" y="727.27" type="priority"/>
    <node id="561599141" x="1211.96" y="683.39" type="dead_end"/>
    <node id="598308224" x="836.91" y="1024.13" type="dead_end"/>
    <node id="601257982" x="606.87" y="919.48" type="priority"/>
    <node id="601643781" x="805.82" y="1009.82" type="priority"/>
    <node id="602121931" x="1082.83" y="462.68" type="priority"/>
    <node id="602121959" x="945.47" y="668.54" type="priority"/>
    <node id="602121964" x="1058.22" y="468.12" type="priority"/>
    <node id="602121990" x="1044.62" y="420.64" type="priority"/>
    <node id="602121991" x="952.60" y="383.52" type="priority"/>
    <node id="602121994" x="950.14" y="374.88" type="priority"/>
    <node id="602122007" x="1047.25" y="414.83" type="priority"/>
    <node id="602122045" x="1128.97" y="441.70" type="priority"/>
    <node id="602122079" x="1080.03" y="479.19" type="priority"/>
    <node id="602122080" x="1067.16" y="503.28" type="right_before_left"/>
    <node id="602122082" x="969.12" y="679.74" type="priority"/>
    <node id="602122083" x="960.63" y="679.43" type="priority"/>
    <node id="602122113" x="1111.48" y="411.70" type="priority"/>
    <node id="602122122" x="1115.14" y="401.26" type="priority"/>
    <node id="602610819" x="770.42" y="939.89" type="priority"/>
    <node id="602610824" x="817.53" y="907.75" type="priority"/>
    <node id="602610825" x="916.57" y="721.83" type="priority"/>
    <node id="602610828" x="924.89" y="723.10" type="priority"/>
    <node id="602610847" x="813.78" y="928.73" type="priority"/>
    <node id="602610851" x="825.28" y="911.04" type="priority"/>
    <node id="602610877" x="934.73" y="726.64" type="priority"/>
    <node id="602610879" x="940.04" y="731.35" type="priority"/>
    <node id="602610883" x="842.62" y="915.68" type="priority"/>
    <node id="602611039" x="791.81" y="946.49" type="priority"/>
    <node id="602611050" x="829.34" y="932.36" type="priority"/>
    <node id="602611052" x="835.17" y="936.98" type="priority"/>
    <node id="602628964" x="934.42" y="689.47" type="priority"/>
    <node id="602628973" x="927.23" y="701.94" type="priority"/>
    <node id="602628981" x="950.23" y="713.61" type="priority"/>
    <node id="602628993" x="956.56" y="702.09" type="priority"/>
    <node id="603858891" x="409.10" y="901.87" type="priority"/>
    <node id="603858892" x="457.86" y="897.50" type="priority"/>
    <node id="603858895" x="432.04" y="895.16" type="priority"/>
    <node id="604306793" x="400.54" y="879.25" type="priority"/>
    <node id="610303215" x="1286.81" y="349.76" type="dead_end"/>
    <node id="610303220" x="1250.35" y="414.50" type="dead_end"/>
    <node id="610303221" x="1236.01" y="407.17" type="priority"/>
    <node id="610303229" x="1433.74" y="411.76" type="dead_end"/>
    <node id="610303232" x="1351.96" y="406.11" type="dead_end"/>
    <node id="610303234" x="1266.63" y="426.63" type="dead_end"/>
    <node id="610303235" x="1275.42" y="468.70" type="dead_end"/>
    <node id="610303238" x="1242.29" y="494.83" type="priority"/>
    <node id="610303248" x="1329.11" y="314.32" type="dead_end"/>
    <node id="610303262" x="1274.67" y="295.49" type="dead_end"/>
    <node id="610303273" x="1234.63" y="279.69" type="priority"/>
    <node id="610303276" x="1161.45" y="201.76" type="dead_end"/>
    <node id="610303281" x="1131.59" y="253.93" type="dead_end"/>
    <node id="610303286" x="1081.02" y="277.36" type="dead_end"/>
    <node id="610303295" x="1132.99" y="282.76" type="dead_end"/>
    <node id="610303322" x="1017.62" y="247.31" type="dead_end"/>
    <node id="610303355" x="1050.23" y="271.08" type="dead_end"/>
    <node id="610303356" x="1070.49" y="275.21" type="dead_end"/>
    <node id="610303361" x="1203.44" y="269.76" type="priority"/>
    <node id="610308463" x="1002.75" y="339.50" type="dead_end"/>
    <node id="610308588" x="1105.43" y="323.25" type="dead_end"/>
    <node id="610308642" x="1030.75" y="307.71" type="dead_end"/>
    <node id="610308681" x="1024.66" y="298.44" type="dead_end"/>
    <node id="610323279" x="1072.56" y="765.54" type="priority"/>
    <node id="610323280" x="1225.88" y="691.73" type="dead_end"/>
    <node id="610323290" x="1147.33" y="619.77" type="priority"/>
    <node id="610323294" x="1155.54" y="622.71" type="priority"/>
    <node id="715632117" x="1373.05" y="720.24" type="dead_end"/>
    <node id="762121077" x="234.47" y="900.41" type="right_before_left"/>
    <node id="762121090" x="224.78" y="895.62" type="right_before_left"/>
    <node id="762121188" x="351.60" y="889.02" type="right_before_left"/>
    <node id="840612603" x="1145.23" y="328.20" type="priority"/>
    <node id="840614110" x="1005.74" y="378.93" type="priority"/>
    <node id="840614111" x="961.06" y="360.47" type="priority"/>
    <node id="840614115" x="1051.05" y="396.67" type="priority"/>
    <node id="840618093" x="921.58" y="348.40" type="priority"/>
    <node id="840621533" x="1078.37" y="387.88" type="right_before_left"/>
    <node id="840621534" x="1108.30" y="466.59" type="right_before_left"/>
    <node id="840621535" x="1108.97" y="469.11" type="priority"/>
    <node id="840621536" x="1055.72" y="443.62" type="right_before_left"/>
    <node id="840621537" x="1052.21" y="444.96" type="priority"/>
    <node id="840621538" x="1082.15" y="398.58" type="right_before_left"/>
    <node id="840621539" x="1080.19" y="393.32" type="priority"/>
    <node id="840621540" x="1129.37" y="421.61" type="right_before_left"/>
    <node id="840621541" x="1135.58" y="419.86" type="priority"/>
    <node id="840621542" x="1069.41" y="462.34" type="priority"/>
    <node id="840621549" x="1078.62" y="467.54" type="priority"/>
    <node id="840621556" x="1107.42" y="396.65" type="priority"/>
    <node id="894174116" x="1230.41" y="268.93" type="traffic_light" tl="894174116"/>
    <node id="894174119" x="1224.95" y="262.12" type="traffic_light" tl="894174119"/>
    <node id="929983727" x="828.95" y="1025.53" type="priority"/>
    <node id="942725988" x="1098.73" y="404.39" type="priority"/>
    <node id="945849782" x="821.76" y="979.84" type="priority"/>
    <node id="945849794" x="826.95" y="1023.05" type="priority"/>
    <node id="945849806" x="811.89" y="1004.46" type="priority"/>
    <node id="945849981" x="833.79" y="973.65" type="priority"/>
    <node id="954186906" x="395.22" y="865.25" type="priority"/>
    <node id="954186922" x="438.32" y="858.59" type="priority"/>
    <node id="954187052" x="856.63" y="409.88" type="priority"/>
    <node id="963535277" x="454.05" y="883.38" type="priority"/>