<?xml version="1.0" encoding="UTF-8"?>

<!-- generated on 6/25/2018 11:34:04 PM by Netedit Version 0.32.0
<?xml version="1.0" encoding="UTF-8"?>

<configuration xmlns:xsi="http://www.w3.org/2001/XMLSchema-instance" xsi:noNamespaceSchemaLocation="http://sumo.dlr.de/xsd/netconvertConfiguration.xsd">

    <input>
        <sumo-net-file value="C:\Users\abeld\Documents\School\Year%202\Project%202-2\Project_2.2\desktop\assets\Intersection\Normal%20Interchange\normal%20interchange.net.xml"/>
    </input>

    <output>
        <output-file value="C:\Users\abeld\Documents\School\Year%202\Project%202-2\Project_2.2\desktop\assets\Intersection\Normal%20Interchange\normal%20interchange.net.xml"/>
        <plain-output-prefix value="C:\Users\abeld\Documents\School\Year%202\Project%202-2\Project_2.2\desktop\assets\Intersection\Normal%20Interchange\NormalInterchange"/>
    </output>

    <processing>
        <no-turnarounds value="true"/>
        <offset.disable-normalization value="true"/>
        <lefthand value="false"/>
        <junctions.corner-detail value="0"/>
        <rectangular-lane-cut value="false"/>
        <walkingareas value="false"/>
    </processing>

</configuration>
-->

<connections version="0.27" xmlns:xsi="http://www.w3.org/2001/XMLSchema-instance" xsi:noNamespaceSchemaLocation="http://sumo.dlr.de/xsd/connections_file.xsd">
    <connection from="gneE359" to="gneE744" fromLane="0" toLane="0"/>

    <connection from="gneE361" to="gneE743" fromLane="0" toLane="0"/>

    <connection from="gneE362" to="gneE742" fromLane="0" toLane="0"/>

    <connection from="gneE373" to="gneE691" fromLane="0" toLane="0"/>

    <connection from="gneE374" to="gneE698" fromLane="0" toLane="0"/>

    <connection from="gneE375" to="gneE705" fromLane="0" toLane="0"/>

    <connection from="gneE415" to="gneE416" fromLane="0" toLane="0"/>
    <connection from="gneE415" to="gneE480" fromLane="0" toLane="0"/>

    <connection from="gneE416" to="gneE417" fromLane="0" toLane="0"/>

    <connection from="gneE417" to="gneE418" fromLane="0" toLane="0"/>
    <connection from="gneE417" to="gneE482" fromLane="0" toLane="0"/>

    <connection from="gneE418" to="gneE419" fromLane="0" toLane="0"/>

    <connection from="gneE419" to="gneE738" fromLane="0" toLane="0"/>

    <connection from="gneE421" to="gneE479" fromLane="0" toLane="0"/>
    <connection from="gneE421" to="gneE422" fromLane="0" toLane="0"/>
    <connection from="gneE421" to="gneE481" fromLane="0" toLane="0"/>

    <connection from="gneE422" to="gneE423" fromLane="0" toLane="0"/>

    <connection from="gneE423" to="gneE485" fromLane="0" toLane="0"/>
    <connection from="gneE423" to="gneE424" fromLane="0" toLane="0"/>
    <connection from="gneE423" to="gneE483" fromLane="0" toLane="0"/>

    <connection from="gneE424" to="gneE425" fromLane="0" toLane="0"/>

    <connection from="gneE425" to="gneE737" fromLane="0" toLane="0"/>

    <connection from="gneE428" to="gneE478" fromLane="0" toLane="0"/>
    <connection from="gneE428" to="gneE431" fromLane="0" toLane="0"/>

    <connection from="gneE431" to="gneE432" fromLane="0" toLane="0"/>

    <connection from="gneE432" to="gneE484" fromLane="0" toLane="0"/>
    <connection from="gneE432" to="gneE433" fromLane="0" toLane="0"/>

    <connection from="gneE433" to="gneE434" fromLane="0" toLane="0"/>

    <connection from="gneE434" to="gneE736" fromLane="0" toLane="0"/>

    <connection from="gneE435" to="gneE486" fromLane="0" toLane="0"/>
    <connection from="gneE435" to="gneE436" fromLane="0" toLane="0"/>

    <connection from="gneE436" to="gneE437" fromLane="0" toLane="0"/>

    <connection from="gneE437" to="gneE492" fromLane="0" toLane="0"/>
    <connection from="gneE437" to="gneE438" fromLane="0" toLane="0"/>

    <connection from="gneE438" to="gneE439" fromLane="0" toLane="0"/>

    <connection from="gneE439" to="gneE474" fromLane="0" toLane="0"/>
    <connection from="gneE439" to="gneE461" fromLane="0" toLane="0"/>

    <connection from="gneE443" to="gneE489" fromLane="0" toLane="0"/>
    <connection from="gneE443" to="gneE444" fromLane="0" toLane="0"/>
    <connection from="gneE443" to="gneE487" fromLane="0" toLane="0"/>

    <connection from="gneE444" to="gneE445" fromLane="0" toLane="0"/>

    <connection from="gneE445" to="gneE491" fromLane="0" toLane="0"/>
    <connection from="gneE445" to="gneE446" fromLane="0" toLane="0"/>
    <connection from="gneE445" to="gneE493" fromLane="0" toLane="0"/>

    <connection from="gneE446" to="gneE447" fromLane="0" toLane="0"/>

    <connection from="gneE447" to="gneE477" fromLane="0" toLane="0"/>
    <connection from="gneE447" to="gneE464" fromLane="0" toLane="0"/>
    <connection from="gneE447" to="gneE475" fromLane="0" toLane="0"/>

    <connection from="gneE449" to="gneE450" fromLane="0" toLane="0"/>
    <connection from="gneE449" to="gneE488" fromLane="0" toLane="0"/>

    <connection from="gneE450" to="gneE451" fromLane="0" toLane="0"/>

    <connection from="gneE451" to="gneE452" fromLane="0" toLane="0"/>
    <connection from="gneE451" to="gneE490" fromLane="0" toLane="0"/>

    <connection from="gneE452" to="gneE453" fromLane="0" toLane="0"/>

    <connection from="gneE453" to="gneE466" fromLane="0" toLane="0"/>
    <connection from="gneE453" to="gneE476" fromLane="0" toLane="0"/>

    <connection from="gneE455" to="gneE456" fromLane="0" toLane="0"/>
    <connection from="gneE455" to="gneE473" fromLane="0" toLane="0"/>

    <connection from="gneE456" to="gneE415" fromLane="0" toLane="0"/>

    <connection from="gneE457" to="gneE472" fromLane="0" toLane="0"/>
    <connection from="gneE457" to="gneE458" fromLane="0" toLane="0"/>
    <connection from="gneE457" to="gneE471" fromLane="0" toLane="0"/>

    <connection from="gneE458" to="gneE421" fromLane="0" toLane="0"/>

    <connection from="gneE459" to="gneE470" fromLane="0" toLane="0"/>
    <connection from="gneE459" to="gneE460" fromLane="0" toLane="0"/>

    <connection from="gneE460" to="gneE428" fromLane="0" toLane="0"/>

    <connection from="gneE461" to="gneE463" fromLane="0" toLane="0"/>

    <connection from="gneE464" to="gneE465" fromLane="0" toLane="0"/>

    <connection from="gneE466" to="gneE467" fromLane="0" toLane="0"/>

    <connection from="gneE470" to="gneE421" fromLane="0" toLane="0"/>

    <connection from="gneE471" to="gneE428" fromLane="0" toLane="0"/>

    <connection from="gneE472" to="gneE415" fromLane="0" toLane="0"/>

    <connection from="gneE473" to="gneE421" fromLane="0" toLane="0"/>

    <connection from="gneE474" to="gneE465" fromLane="0" toLane="0"/>

    <connection from="gneE475" to="gneE463" fromLane="0" toLane="0"/>

    <connection from="gneE476" to="gneE465" fromLane="0" toLane="0"/>

    <connection from="gneE477" to="gneE467" fromLane="0" toLane="0"/>

    <connection from="gneE478" to="gneE423" fromLane="0" toLane="0"/>

    <connection from="gneE479" to="gneE417" fromLane="0" toLane="0"/>

    <connection from="gneE480" to="gneE423" fromLane="0" toLane="0"/>

    <connection from="gneE481" to="gneE432" fromLane="0" toLane="0"/>

    <connection from="gneE482" to="gneE425" fromLane="0" toLane="0"/>

    <connection from="gneE483" to="gneE434" fromLane="0" toLane="0"/>

    <connection from="gneE484" to="gneE425" fromLane="0" toLane="0"/>

    <connection from="gneE485" to="gneE419" fromLane="0" toLane="0"/>

    <connection from="gneE486" to="gneE445" fromLane="0" toLane="0"/>

    <connection from="gneE487" to="gneE437" fromLane="0" toLane="0"/>

    <connection from="gneE488" to="gneE445" fromLane="0" toLane="0"/>

    <connection from="gneE489" to="gneE451" fromLane="0" toLane="0"/>

    <connection from="gneE490" to="gneE447" fromLane="0" toLane="0"/>

    <connection from="gneE491" to="gneE453" fromLane="0" toLane="0"/>

    <connection from="gneE492" to="gneE447" fromLane="0" toLane="0"/>

    <connection from="gneE493" to="gneE439" fromLane="0" toLane="0"/>

    <connection from="gneE496" to="gneE555" fromLane="0" toLane="0"/>
    <connection from="gneE496" to="gneE497" fromLane="0" toLane="0"/>

    <connection from="gneE497" to="gneE498" fromLane="0" toLane="0"/>

    <connection from="gneE498" to="gneE557" fromLane="0" toLane="0"/>
    <connection from="gneE498" to="gneE499" fromLane="0" toLane="0"/>

    <connection from="gneE499" to="gneE500" fromLane="0" toLane="0"/>

    <connection from="gneE500" to="gneE564" fromLane="0" toLane="0"/>
    <connection from="gneE500" to="gneE504" fromLane="0" toLane="0"/>

    <connection from="gneE504" to="gneE505" fromLane="0" toLane="0"/>

    <connection from="gneE505" to="gneE754" fromLane="0" toLane="0"/>

    <connection from="gneE506" to="gneE755" fromLane="0" toLane="0"/>

    <connection from="gneE507" to="gneE554" fromLane="0" toLane="0"/>
    <connection from="gneE507" to="gneE508" fromLane="0" toLane="0"/>
    <connection from="gneE507" to="gneE556" fromLane="0" toLane="0"/>

    <connection from="gneE508" to="gneE509" fromLane="0" toLane="0"/>

    <connection from="gneE509" to="gneE561" fromLane="0" toLane="0"/>
    <connection from="gneE509" to="gneE510" fromLane="0" toLane="0"/>
    <connection from="gneE509" to="gneE559" fromLane="0" toLane="0"/>

    <connection from="gneE510" to="gneE511" fromLane="0" toLane="0"/>

    <connection from="gneE511" to="gneE563" fromLane="0" toLane="0"/>
    <connection from="gneE511" to="gneE512" fromLane="0" toLane="0"/>
    <connection from="gneE511" to="gneE566" fromLane="0" toLane="0"/>

    <connection from="gneE512" to="gneE506" fromLane="0" toLane="0"/>

    <connection from="gneE513" to="gneE514" fromLane="0" toLane="0"/>
    <connection from="gneE513" to="gneE553" fromLane="0" toLane="0"/>

    <connection from="gneE514" to="gneE515" fromLane="0" toLane="0"/>

    <connection from="gneE515" to="gneE516" fromLane="0" toLane="0"/>
    <connection from="gneE515" to="gneE560" fromLane="0" toLane="0"/>

    <connection from="gneE516" to="gneE517" fromLane="0" toLane="0"/>

    <connection from="gneE517" to="gneE518" fromLane="0" toLane="0"/>
    <connection from="gneE517" to="gneE562" fromLane="0" toLane="0"/>

    <connection from="gneE518" to="gneE519" fromLane="0" toLane="0"/>

    <connection from="gneE519" to="gneE756" fromLane="0" toLane="0"/>

    <connection from="gneE520" to="gneE552" fromLane="0" toLane="0"/>
    <connection from="gneE520" to="gneE521" fromLane="0" toLane="0"/>

    <connection from="gneE521" to="gneE522" fromLane="0" toLane="0"/>

    <connection from="gneE522" to="gneE548" fromLane="0" toLane="0"/>
    <connection from="gneE522" to="gneE523" fromLane="0" toLane="0"/>

    <connection from="gneE523" to="gneE524" fromLane="0" toLane="0"/>

    <connection from="gneE524" to="gneE541" fromLane="0" toLane="0"/>
    <connection from="gneE524" to="gneE525" fromLane="0" toLane="0"/>

    <connection from="gneE525" to="gneE526" fromLane="0" toLane="0"/>

    <connection from="gneE527" to="gneE550" fromLane="0" toLane="0"/>
    <connection from="gneE527" to="gneE528" fromLane="0" toLane="0"/>
    <connection from="gneE527" to="gneE551" fromLane="0" toLane="0"/>

    <connection from="gneE528" to="gneE529" fromLane="0" toLane="0"/>

    <connection from="gneE529" to="gneE546" fromLane="0" toLane="0"/>
    <connection from="gneE529" to="gneE530" fromLane="0" toLane="0"/>
    <connection from="gneE529" to="gneE547" fromLane="0" toLane="0"/>

    <connection from="gneE530" to="gneE531" fromLane="0" toLane="0"/>

    <connection from="gneE531" to="gneE544" fromLane="0" toLane="0"/>
    <connection from="gneE531" to="gneE532" fromLane="0" toLane="0"/>
    <connection from="gneE531" to="gneE542" fromLane="0" toLane="0"/>

    <connection from="gneE532" to="gneE533" fromLane="0" toLane="0"/>

    <connection from="gneE534" to="gneE535" fromLane="0" toLane="0"/>
    <connection from="gneE534" to="gneE549" fromLane="0" toLane="0"/>

    <connection from="gneE535" to="gneE536" fromLane="0" toLane="0"/>

    <connection from="gneE536" to="gneE537" fromLane="0" toLane="0"/>
    <connection from="gneE536" to="gneE545" fromLane="0" toLane="0"/>

    <connection from="gneE537" to="gneE538" fromLane="0" toLane="0"/>

    <connection from="gneE538" to="gneE539" fromLane="0" toLane="0"/>
    <connection from="gneE538" to="gneE543" fromLane="0" toLane="0"/>

    <connection from="gneE539" to="gneE540" fromLane="0" toLane="0"/>

    <connection from="gneE541" to="gneE533" fromLane="0" toLane="0"/>

    <connection from="gneE542" to="gneE526" fromLane="0" toLane="0"/>

    <connection from="gneE543" to="gneE533" fromLane="0" toLane="0"/>

    <connection from="gneE544" to="gneE540" fromLane="0" toLane="0"/>

    <connection from="gneE545" to="gneE531" fromLane="0" toLane="0"/>

    <connection from="gneE546" to="gneE538" fromLane="0" toLane="0"/>

    <connection from="gneE547" to="gneE524" fromLane="0" toLane="0"/>

    <connection from="gneE548" to="gneE531" fromLane="0" toLane="0"/>

    <connection from="gneE549" to="gneE529" fromLane="0" toLane="0"/>

    <connection from="gneE550" to="gneE536" fromLane="0" toLane="0"/>

    <connection from="gneE551" to="gneE522" fromLane="0" toLane="0"/>

    <connection from="gneE552" to="gneE529" fromLane="0" toLane="0"/>

    <connection from="gneE553" to="gneE509" fromLane="0" toLane="0"/>

    <connection from="gneE554" to="gneE515" fromLane="0" toLane="0"/>

    <connection from="gneE555" to="gneE509" fromLane="0" toLane="0"/>

    <connection from="gneE556" to="gneE498" fromLane="0" toLane="0"/>

    <connection from="gneE557" to="gneE511" fromLane="0" toLane="0"/>

    <connection from="gneE559" to="gneE500" fromLane="0" toLane="0"/>

    <connection from="gneE560" to="gneE511" fromLane="0" toLane="0"/>

    <connection from="gneE561" to="gneE517" fromLane="0" toLane="0"/>

    <connection from="gneE562" to="gneE506" fromLane="0" toLane="0"/>

    <connection from="gneE563" to="gneE519" fromLane="0" toLane="0"/>

    <connection from="gneE564" to="gneE506" fromLane="0" toLane="0"/>

    <connection from="gneE566" to="gneE505" fromLane="0" toLane="0"/>

    <connection from="gneE576" to="gneE577" fromLane="0" toLane="0"/>
    <connection from="gneE576" to="gneE658" fromLane="0" toLane="0"/>

    <connection from="gneE577" to="gneE578" fromLane="0" toLane="0"/>

    <connection from="gneE578" to="gneE579" fromLane="0" toLane="0"/>
    <connection from="gneE578" to="gneE664" fromLane="0" toLane="0"/>

    <connection from="gneE579" to="gneE580" fromLane="0" toLane="0"/>

    <connection from="gneE580" to="gneE581" fromLane="0" toLane="0"/>
    <connection from="gneE580" to="gneE666" fromLane="0" toLane="0"/>

    <connection from="gneE581" to="gneE582" fromLane="0" toLane="0"/>

    <connection from="gneE582" to="gneE750" fromLane="0" toLane="0"/>

    <connection from="gneE583" to="gneE659" fromLane="0" toLane="0"/>
    <connection from="gneE583" to="gneE584" fromLane="0" toLane="0"/>
    <connection from="gneE583" to="gneE660" fromLane="0" toLane="0"/>

    <connection from="gneE584" to="gneE585" fromLane="0" toLane="0"/>

    <connection from="gneE585" to="gneE663" fromLane="0" toLane="0"/>
    <connection from="gneE585" to="gneE587" fromLane="0" toLane="0"/>
    <connection from="gneE585" to="gneE665" fromLane="0" toLane="0"/>

    <connection from="gneE587" to="gneE588" fromLane="0" toLane="0"/>

    <connection from="gneE588" to="gneE669" fromLane="0" toLane="0"/>
    <connection from="gneE588" to="gneE589" fromLane="0" toLane="0"/>
    <connection from="gneE588" to="gneE667" fromLane="0" toLane="0"/>

    <connection from="gneE589" to="gneE590" fromLane="0" toLane="0"/>

    <connection from="gneE590" to="gneE749" fromLane="0" toLane="0"/>

    <connection from="gneE591" to="gneE661" fromLane="0" toLane="0"/>
    <connection from="gneE591" to="gneE592" fromLane="0" toLane="0"/>

    <connection from="gneE592" to="gneE593" fromLane="0" toLane="0"/>

    <connection from="gneE593" to="gneE662" fromLane="0" toLane="0"/>
    <connection from="gneE593" to="gneE594" fromLane="0" toLane="0"/>

    <connection from="gneE594" to="gneE595" fromLane="0" toLane="0"/>

    <connection from="gneE595" to="gneE668" fromLane="0" toLane="0"/>
    <connection from="gneE595" to="gneE596" fromLane="0" toLane="0"/>

    <connection from="gneE596" to="gneE597" fromLane="0" toLane="0"/>

    <connection from="gneE597" to="gneE748" fromLane="0" toLane="0"/>

    <connection from="gneE598" to="gneE599" fromLane="0" toLane="0"/>
    <connection from="gneE598" to="gneE647" fromLane="0" toLane="0"/>

    <connection from="gneE599" to="gneE600" fromLane="0" toLane="0"/>

    <connection from="gneE600" to="gneE602" fromLane="0" toLane="0"/>
    <connection from="gneE600" to="gneE649" fromLane="0" toLane="0"/>

    <connection from="gneE602" to="gneE603" fromLane="0" toLane="0"/>

    <connection from="gneE603" to="gneE604" fromLane="0" toLane="0"/>
    <connection from="gneE603" to="gneE651" fromLane="0" toLane="0"/>

    <connection from="gneE604" to="gneE605" fromLane="0" toLane="0"/>

    <connection from="gneE632" to="gneE646" fromLane="0" toLane="0"/>
    <connection from="gneE632" to="gneE633" fromLane="0" toLane="0"/>
    <connection from="gneE632" to="gneE653" fromLane="0" toLane="0"/>

    <connection from="gneE633" to="gneE634" fromLane="0" toLane="0"/>

    <connection from="gneE634" to="gneE648" fromLane="0" toLane="0"/>
    <connection from="gneE634" to="gneE635" fromLane="0" toLane="0"/>
    <connection from="gneE634" to="gneE655" fromLane="0" toLane="0"/>

    <connection from="gneE635" to="gneE636" fromLane="0" toLane="0"/>

    <connection from="gneE636" to="gneE650" fromLane="0" toLane="0"/>
    <connection from="gneE636" to="gneE637" fromLane="0" toLane="0"/>
    <connection from="gneE636" to="gneE657" fromLane="0" toLane="0"/>

    <connection from="gneE637" to="gneE638" fromLane="0" toLane="0"/>

    <connection from="gneE639" to="gneE652" fromLane="0" toLane="0"/>
    <connection from="gneE639" to="gneE640" fromLane="0" toLane="0"/>

    <connection from="gneE640" to="gneE641" fromLane="0" toLane="0"/>

    <connection from="gneE641" to="gneE654" fromLane="0" toLane="0"/>
    <connection from="gneE641" to="gneE642" fromLane="0" toLane="0"/>

    <connection from="gneE642" to="gneE643" fromLane="0" toLane="0"/>

    <connection from="gneE643" to="gneE656" fromLane="0" toLane="0"/>
    <connection from="gneE643" to="gneE644" fromLane="0" toLane="0"/>

    <connection from="gneE644" to="gneE645" fromLane="0" toLane="0"/>

    <connection from="gneE646" to="gneE600" fromLane="0" toLane="0"/>

    <connection from="gneE647" to="gneE634" fromLane="0" toLane="0"/>

    <connection from="gneE648" to="gneE603" fromLane="0" toLane="0"/>

    <connection from="gneE649" to="gneE636" fromLane="0" toLane="0"/>

    <connection from="gneE650" to="gneE605" fromLane="0" toLane="0"/>

    <connection from="gneE651" to="gneE638" fromLane="0" toLane="0"/>

    <connection from="gneE652" to="gneE634" fromLane="0" toLane="0"/>

    <connection from="gneE653" to="gneE641" fromLane="0" toLane="0"/>

    <connection from="gneE654" to="gneE636" fromLane="0" toLane="0"/>

    <connection from="gneE655" to="gneE643" fromLane="0" toLane="0"/>

    <connection from="gneE656" to="gneE638" fromLane="0" toLane="0"/>

    <connection from="gneE657" to="gneE645" fromLane="0" toLane="0"/>

    <connection from="gneE658" to="gneE585" fromLane="0" toLane="0"/>

    <connection from="gneE659" to="gneE578" fromLane="0" toLane="0"/>

    <connection from="gneE660" to="gneE593" fromLane="0" toLane="0"/>

    <connection from="gneE661" to="gneE585" fromLane="0" toLane="0"/>

    <connection from="gneE662" to="gneE588" fromLane="0" toLane="0"/>

    <connection from="gneE663" to="gneE580" fromLane="0" toLane="0"/>

    <connection from="gneE664" to="gneE588" fromLane="0" toLane="0"/>

    <connection from="gneE665" to="gneE595" fromLane="0" toLane="0"/>

    <connection from="gneE666" to="gneE590" fromLane="0" toLane="0"/>

    <connection from="gneE667" to="gneE597" fromLane="0" toLane="0"/>

    <connection from="gneE668" to="gneE590" fromLane="0" toLane="0"/>

    <connection from="gneE669" to="gneE582" fromLane="0" toLane="0"/>

    <connection from="gneE670" to="gneE671" fromLane="0" toLane="0"/>
    <connection from="gneE670" to="gneE712" fromLane="0" toLane="0"/>

    <connection from="gneE671" to="gneE672" fromLane="0" toLane="0"/>

    <connection from="gneE672" to="gneE673" fromLane="0" toLane="0"/>
    <connection from="gneE672" to="gneE719" fromLane="0" toLane="0"/>

    <connection from="gneE673" to="gneE674" fromLane="0" toLane="0"/>

    <connection from="gneE674" to="gneE675" fromLane="0" toLane="0"/>
    <connection from="gneE674" to="gneE723" fromLane="0" toLane="0"/>

    <connection from="gneE675" to="gneE676" fromLane="0" toLane="0"/>

    <connection from="gneE676" to="gneE359" fromLane="0" toLane="0"/>

    <connection from="gneE677" to="gneE713" fromLane="0" toLane="0"/>
    <connection from="gneE677" to="gneE678" fromLane="0" toLane="0"/>
    <connection from="gneE677" to="gneE715" fromLane="0" toLane="0"/>

    <connection from="gneE678" to="gneE679" fromLane="0" toLane="0"/>

    <connection from="gneE679" to="gneE718" fromLane="0" toLane="0"/>
    <connection from="gneE679" to="gneE680" fromLane="0" toLane="0"/>
    <connection from="gneE679" to="gneE717" fromLane="0" toLane="0"/>

    <connection from="gneE680" to="gneE681" fromLane="0" toLane="0"/>

    <connection from="gneE681" to="gneE722" fromLane="0" toLane="0"/>
    <connection from="gneE681" to="gneE682" fromLane="0" toLane="0"/>
    <connection from="gneE681" to="gneE721" fromLane="0" toLane="0"/>

    <connection from="gneE682" to="gneE683" fromLane="0" toLane="0"/>

    <connection from="gneE683" to="gneE361" fromLane="0" toLane="0"/>

    <connection from="gneE684" to="gneE714" fromLane="0" toLane="0"/>
    <connection from="gneE684" to="gneE685" fromLane="0" toLane="0"/>

    <connection from="gneE685" to="gneE686" fromLane="0" toLane="0"/>

    <connection from="gneE686" to="gneE716" fromLane="0" toLane="0"/>
    <connection from="gneE686" to="gneE687" fromLane="0" toLane="0"/>

    <connection from="gneE687" to="gneE688" fromLane="0" toLane="0"/>

    <connection from="gneE688" to="gneE720" fromLane="0" toLane="0"/>
    <connection from="gneE688" to="gneE689" fromLane="0" toLane="0"/>

    <connection from="gneE689" to="gneE690" fromLane="0" toLane="0"/>

    <connection from="gneE690" to="gneE362" fromLane="0" toLane="0"/>

    <connection from="gneE691" to="gneE724" fromLane="0" toLane="0"/>
    <connection from="gneE691" to="gneE692" fromLane="0" toLane="0"/>

    <connection from="gneE692" to="gneE694" fromLane="0" toLane="0"/>

    <connection from="gneE693" to="gneE695" fromLane="0" toLane="0"/>

    <connection from="gneE694" to="gneE730" fromLane="0" toLane="0"/>
    <connection from="gneE694" to="gneE693" fromLane="0" toLane="0"/>

    <connection from="gneE695" to="gneE732" fromLane="0" toLane="0"/>
    <connection from="gneE695" to="gneE696" fromLane="0" toLane="0"/>

    <connection from="gneE696" to="gneE697" fromLane="0" toLane="0"/>

    <connection from="gneE698" to="gneE727" fromLane="0" toLane="0"/>
    <connection from="gneE698" to="gneE699" fromLane="0" toLane="0"/>
    <connection from="gneE698" to="gneE725" fromLane="0" toLane="0"/>

    <connection from="gneE699" to="gneE700" fromLane="0" toLane="0"/>

    <connection from="gneE700" to="gneE729" fromLane="0" toLane="0"/>
    <connection from="gneE700" to="gneE701" fromLane="0" toLane="0"/>
    <connection from="gneE700" to="gneE731" fromLane="0" toLane="0"/>

    <connection from="gneE701" to="gneE702" fromLane="0" toLane="0"/>

    <connection from="gneE702" to="gneE734" fromLane="0" toLane="0"/>
    <connection from="gneE702" to="gneE703" fromLane="0" toLane="0"/>
    <connection from="gneE702" to="gneE733" fromLane="0" toLane="0"/>

    <connection from="gneE703" to="gneE704" fromLane="0" toLane="0"/>

    <connection from="gneE705" to="gneE706" fromLane="0" toLane="0"/>
    <connection from="gneE705" to="gneE726" fromLane="0" toLane="0"/>

    <connection from="gneE706" to="gneE707" fromLane="0" toLane="0"/>

    <connection from="gneE707" to="gneE708" fromLane="0" toLane="0"/>
    <connection from="gneE707" to="gneE728" fromLane="0" toLane="0"/>

    <connection from="gneE708" to="gneE709" fromLane="0" toLane="0"/>

    <connection from="gneE709" to="gneE710" fromLane="0" toLane="0"/>
    <connection from="gneE709" to="gneE735" fromLane="0" toLane="0"/>

    <connection from="gneE710" to="gneE711" fromLane="0" toLane="0"/>

    <connection from="gneE712" to="gneE679" fromLane="0" toLane="0"/>

    <connection from="gneE713" to="gneE672" fromLane="0" toLane="0"/>

    <connection from="gneE714" to="gneE679" fromLane="0" toLane="0"/>

    <connection from="gneE715" to="gneE686" fromLane="0" toLane="0"/>

    <connection from="gneE716" to="gneE681" fromLane="0" toLane="0"/>

    <connection from="gneE717" to="gneE688" fromLane="0" toLane="0"/>

    <connection from="gneE718" to="gneE674" fromLane="0" toLane="0"/>

    <connection from="gneE719" to="gneE681" fromLane="0" toLane="0"/>

    <connection from="gneE720" to="gneE683" fromLane="0" toLane="0"/>

    <connection from="gneE721" to="gneE690" fromLane="0" toLane="0"/>

    <connection from="gneE722" to="gneE676" fromLane="0" toLane="0"/>

    <connection from="gneE723" to="gneE683" fromLane="0" toLane="0"/>

    <connection from="gneE724" to="gneE700" fromLane="0" toLane="0"/>

    <connection from="gneE725" to="gneE694" fromLane="0" toLane="0"/>

    <connection from="gneE726" to="gneE700" fromLane="0" toLane="0"/>

    <connection from="gneE727" to="gneE707" fromLane="0" toLane="0"/>

    <connection from="gneE728" to="gneE702" fromLane="0" toLane="0"/>

    <connection from="gneE729" to="gneE709" fromLane="0" toLane="0"/>

    <connection from="gneE730" to="gneE702" fromLane="0" toLane="0"/>

    <connection from="gneE731" to="gneE695" fromLane="0" toLane="0"/>

    <connection from="gneE732" to="gneE704" fromLane="0" toLane="0"/>

    <connection from="gneE733" to="gneE697" fromLane="0" toLane="0"/>

    <connection from="gneE734" to="gneE711" fromLane="0" toLane="0"/>

    <connection from="gneE735" to="gneE704" fromLane="0" toLane="0"/>

    <connection from="gneE736" to="gneE781" fromLane="0" toLane="0"/>
    <connection from="gneE736" to="gneE765" fromLane="0" toLane="0"/>

    <connection from="gneE737" to="gneE780" fromLane="0" toLane="0"/>

    <connection from="gneE738" to="gneE772" fromLane="0" toLane="0"/>
    <connection from="gneE738" to="gneE779" fromLane="0" toLane="0"/>

    <connection from="gneE739" to="gneE375" fromLane="0" toLane="0"/>

    <connection from="gneE740" to="gneE374" fromLane="0" toLane="0"/>

    <connection from="gneE741" to="gneE373" fromLane="0" toLane="0"/>

    <connection from="gneE742" to="gneE775" fromLane="0" toLane="0"/>
    <connection from="gneE742" to="gneE766" fromLane="0" toLane="0"/>

    <connection from="gneE743" to="gneE774" fromLane="0" toLane="0"/>

    <connection from="gneE744" to="gneE769" fromLane="0" toLane="0"/>
    <connection from="gneE744" to="gneE773" fromLane="0" toLane="0"/>

    <connection from="gneE745" to="gneE598" fromLane="0" toLane="0"/>

    <connection from="gneE746" to="gneE632" fromLane="0" toLane="0"/>

    <connection from="gneE747" to="gneE639" fromLane="0" toLane="0"/>

    <connection from="gneE748" to="gneE782" fromLane="0" toLane="0"/>
    <connection from="gneE748" to="gneE767" fromLane="0" toLane="0"/>

    <connection from="gneE749" to="gneE783" fromLane="0" toLane="0"/>

    <connection from="gneE750" to="gneE770" fromLane="0" toLane="0"/>
    <connection from="gneE750" to="gneE784" fromLane="0" toLane="0"/>

    <connection from="gneE751" to="gneE534" fromLane="0" toLane="0"/>

    <connection from="gneE752" to="gneE527" fromLane="0" toLane="0"/>

    <connection from="gneE753" to="gneE520" fromLane="0" toLane="0"/>

    <connection from="gneE754" to="gneE776" fromLane="0" toLane="0"/>
    <connection from="gneE754" to="gneE768" fromLane="0" toLane="0"/>

    <connection from="gneE755" to="gneE777" fromLane="0" toLane="0"/>

    <connection from="gneE756" to="gneE771" fromLane="0" toLane="0"/>
    <connection from="gneE756" to="gneE778" fromLane="0" toLane="0"/>

    <connection from="gneE762" to="gneE449" fromLane="0" toLane="0"/>

    <connection from="gneE763" to="gneE443" fromLane="0" toLane="0"/>

    <connection from="gneE764" to="gneE435" fromLane="0" toLane="0"/>

    <connection from="gneE765" to="gneE753" fromLane="0" toLane="0"/>

    <connection from="gneE766" to="gneE764" fromLane="0" toLane="0"/>

    <connection from="gneE767" to="gneE741" fromLane="0" toLane="0"/>

    <connection from="gneE768" to="gneE747" fromLane="0" toLane="0"/>

    <connection from="gneE769" to="gneE745" fromLane="0" toLane="0"/>

    <connection from="gneE770" to="gneE751" fromLane="0" toLane="0"/>

    <connection from="gneE771" to="gneE762" fromLane="0" toLane="0"/>

    <connection from="gneE772" to="gneE739" fromLane="0" toLane="0"/>

    <connection from="gneE773" to="gneE751" fromLane="0" toLane="0"/>

    <connection from="gneE774" to="gneE752" fromLane="0" toLane="0"/>

    <connection from="gneE775" to="gneE753" fromLane="0" toLane="0"/>

    <connection from="gneE776" to="gneE741" fromLane="0" toLane="0"/>

    <connection from="gneE777" to="gneE740" fromLane="0" toLane="0"/>

    <connection from="gneE778" to="gneE739" fromLane="0" toLane="0"/>

    <connection from="gneE779" to="gneE745" fromLane="0" toLane="0"/>

    <connection from="gneE780" to="gneE746" fromLane="0" toLane="0"/>

    <connection from="gneE781" to="gneE747" fromLane="0" toLane="0"/>

    <connection from="gneE782" to="gneE764" fromLane="0" toLane="0"/>
