<?xml version="1.0" encoding="UTF-8"?>

<!-- generated on 6/25/2018 11:34:04 PM by Netedit Version 0.32.0
<?xml version="1.0" encoding="UTF-8"?>

<configuration xmlns:xsi="http://www.w3.org/2001/XMLSchema-instance" xsi:noNamespaceSchemaLocation="http://sumo.dlr.de/xsd/netconvertConfiguration.xsd">

    <input>
        <sumo-net-file value="C:\Users\abeld\Documents\School\Year%202\Project%202-2\Project_2.2\desktop\assets\Intersection\Normal%20Interchange\normal%20interchange.net.xml"/>
    </input>

    <output>
        <output-file value="C:\Users\abeld\Documents\School\Year%202\Project%202-2\Project_2.2\desktop\assets\Intersection\Normal%20Interchange\normal%20interchange.net.xml"/>
        <plain-output-prefix value="C:\Users\abeld\Documents\School\Year%202\Project%202-2\Project_2.2\desktop\assets\Intersection\Normal%20Interchange\NormalInterchange"/>
    </output>

    <processing>
        <no-turnarounds value="true"/>
        <offset.disable-normalization value="true"/>
        <lefthand value="false"/>
        <junctions.corner-detail value="0"/>
        <rectangular-lane-cut value="false"/>
        <walkingareas value="false"/>
    </processing>

</configuration>
-->

<edges version="0.27" xmlns:xsi="http://www.w3.org/2001/XMLSchema-instance" xsi:noNamespaceSchemaLocation="http://sumo.dlr.de/xsd/edges_file.xsd">
    <edge id="gneE359" from="gneJ6" to="gneJ266" priority="1" numLanes="1" speed="13.89"/>
    <edge id="gneE361" from="gneJ4" to="gneJ269" priority="1" numLanes="1" speed="13.89"/>
    <edge id="gneE362" from="gneJ2" to="gneJ268" priority="1" numLanes="1" speed="13.89"/>
    <edge id="gneE373" from="gneJ272" to="gneJ208" priority="1" numLanes="1" speed="13.89"/>
    <edge id="gneE374" from="gneJ273" to="gneJ11" priority="1" numLanes="1" speed="13.89"/>
    <edge id="gneE375" from="gneJ274" to="gneJ165" priority="1" numLanes="1" speed="13.89"/>
    <edge id="gneE415" from="gneJ287" to="gneJ288" priority="1" numLanes="1" speed="13.89"/>
    <edge id="gneE416" from="gneJ288" to="gneJ289" priority="1" numLanes="1" speed="13.89"/>
    <edge id="gneE417" from="gneJ289" to="gneJ290" priority="1" numLanes="1" speed="13.89"/>
    <edge id="gneE418" from="gneJ290" to="gneJ291" priority="1" numLanes="1" speed="13.89"/>
    <edge id="gneE419" from="gneJ291" to="gneJ14" priority="1" numLanes="1" speed="13.89"/>
    <edge id="gneE421" from="gneJ292" to="gneJ293" priority="1" numLanes="1" speed="13.89"/>
    <edge id="gneE422" from="gneJ293" to="gneJ294" priority="1" numLanes="1" speed="13.89"/>
    <edge id="gneE423" from="gneJ294" to="gneJ295" priority="1" numLanes="1" speed="13.89"/>
    <edge id="gneE424" from="gneJ295" to="gneJ296" priority="1" numLanes="1" speed="13.89"/>
    <edge id="gneE425" from="gneJ296" to="gneJ16" priority="1" numLanes="1" speed="13.89"/>
    <edge id="gneE428" from="gneJ298" to="gneJ299" priority="1" numLanes="1" speed="13.89"/>
    <edge id="gneE431" from="gneJ299" to="gneJ302" priority="1" numLanes="1" speed="13.89"/>
    <edge id="gneE432" from="gneJ302" to="gneJ303" priority="1" numLanes="1" speed="13.89"/>
    <edge id="gneE433" from="gneJ303" to="gneJ304" priority="1" numLanes="1" speed="13.89"/>
    <edge id="gneE434" from="gneJ304" to="gneJ18" priority="1" numLanes="1" speed="13.89"/>
    <edge id="gneE435" from="gneJ21" to="gneJ305" priority="1" numLanes="1" speed="13.89"/>
    <edge id="gneE436" from="gneJ305" to="gneJ306" priority="1" numLanes="1" speed="13.89"/>
    <edge id="gneE437" from="gneJ306" to="gneJ307" priority="1" numLanes="1" speed="13.89"/>
    <edge id="gneE438" from="gneJ307" to="gneJ308" priority="1" numLanes="1" speed="13.89"/>
    <edge id="gneE439" from="gneJ308" to="gneJ309" priority="1" numLanes="1" speed="13.89"/>
    <edge id="gneE443" from="gneJ45" to="gneJ312" priority="1" numLanes="1" speed="13.89"/>
    <edge id="gneE444" from="gneJ312" to="gneJ313" priority="1" numLanes="1" speed="13.89"/>
    <edge id="gneE445" from="gneJ313" to="gneJ314" priority="1" numLanes="1" speed="13.89"/>
    <edge id="gneE446" from="gneJ314" to="gneJ315" priority="1" numLanes="1" speed="13.89"/>
    <edge id="gneE447" from="gneJ315" to="gneJ316" priority="1" numLanes="1" speed="13.89"/>
    <edge id="gneE449" from="gneJ25" to="gneJ317" priority="1" numLanes="1" speed="13.89"/>
    <edge id="gneE450" from="gneJ317" to="gneJ318" priority="1" numLanes="1" speed="13.89"/>
    <edge id="gneE451" from="gneJ318" to="gneJ319" priority="1" numLanes="1" speed="13.89"/>
    <edge id="gneE452" from="gneJ319" to="gneJ320" priority="1" numLanes="1" speed="13.89"/>
    <edge id="gneE453" from="gneJ320" to="gneJ321" priority="1" numLanes="1" speed="13.89"/>
    <edge id="gneE455" from="west3" to="gneJ322" priority="1" numLanes="1" speed="13.89"/>
    <edge id="gneE456" from="gneJ322" to="gneJ287" priority="1" numLanes="1" speed="13.89"/>
    <edge id="gneE457" from="west2" to="gneJ323" priority="1" numLanes="1" speed="13.89"/>
    <edge id="gneE458" from="gneJ323" to="gneJ292" priority="1" numLanes="1" speed="13.89"/>
    <edge id="gneE459" from="west1" to="gneJ324" priority="1" numLanes="1" speed="13.89"/>
    <edge id="gneE460" from="gneJ324" to="gneJ298" priority="1" numLanes="1" speed="13.89"/>
    <edge id="gneE461" from="gneJ309" to="gneJ325" priority="1" numLanes="1" speed="13.89"/>
    <edge id="gneE463" from="gneJ325" to="west-out1" priority="1" numLanes="1" speed="13.89"/>
    <edge id="gneE464" from="gneJ316" to="gneJ327" priority="1" numLanes="1" speed="13.89"/>
    <edge id="gneE465" from="gneJ327" to="west-out2" priority="1" numLanes="1" speed="13.89"/>
    <edge id="gneE466" from="gneJ321" to="gneJ328" priority="1" numLanes="1" speed="13.89"/>
    <edge id="gneE467" from="gneJ328" to="west-out3" priority="1" numLanes="1" speed="13.89"/>
    <edge id="gneE470" from="gneJ324" to="gneJ292" priority="1" numLanes="1" speed="13.89"/>
    <edge id="gneE471" from="gneJ323" to="gneJ298" priority="1" numLanes="1" speed="13.89"/>
    <edge id="gneE472" from="gneJ323" to="gneJ287" priority="1" numLanes="1" speed="13.89"/>
    <edge id="gneE473" from="gneJ322" to="gneJ292" priority="1" numLanes="1" speed="13.89"/>
    <edge id="gneE474" from="gneJ309" to="gneJ327" priority="1" numLanes="1" speed="13.89"/>
    <edge id="gneE475" from="gneJ316" to="gneJ325" priority="1" numLanes="1" speed="13.89"/>
    <edge id="gneE476" from="gneJ321" to="gneJ327" priority="1" numLanes="1" speed="13.89"/>
    <edge id="gneE477" from="gneJ316" to="gneJ328" priority="1" numLanes="1" speed="13.89"/>
    <edge id="gneE478" from="gneJ299" to="gneJ294" priority="1" numLanes="1" speed="13.89"/>
    <edge id="gneE479" from="gneJ293" to="gneJ289" priority="1" numLanes="1" speed="13.89"/>
    <edge id="gneE480" from="gneJ288" to="gneJ294" priority="1" numLanes="1" speed="13.89"/>
    <edge id="gneE481" from="gneJ293" to="gneJ302" priority="1" numLanes="1" speed="13.89"/>
    <edge id="gneE482" from="gneJ290" to="gneJ296" priority="1" numLanes="1" speed="13.89"/>
    <edge id="gneE483" from="gneJ295" to="gneJ304" priority="1" numLanes="1" speed="13.89"/>
    <edge id="gneE484" from="gneJ303" to="gneJ296" priority="1" numLanes="1" speed="13.89"/>
    <edge id="gneE485" from="gneJ295" to="gneJ291" priority="1" numLanes="1" speed="13.89"/>
    <edge id="gneE486" from="gneJ305" to="gneJ313" priority="1" numLanes="1" speed="13.89"/>
    <edge id="gneE487" from="gneJ312" to="gneJ306" priority="1" numLanes="1" speed="13.89"/>
    <edge id="gneE488" from="gneJ317" to="gneJ313" priority="1" numLanes="1" speed="13.89"/>
    <edge id="gneE489" from="gneJ312" to="gneJ318" priority="1" numLanes="1" speed="13.89"/>
    <edge id="gneE490" from="gneJ319" to="gneJ315" priority="1" numLanes="1" speed="13.89"/>
    <edge id="gneE491" from="gneJ314" to="gneJ320" priority="1" numLanes="1" speed="13.89"/>
    <edge id="gneE492" from="gneJ307" to="gneJ315" priority="1" numLanes="1" speed="13.89"/>
    <edge id="gneE493" from="gneJ314" to="gneJ308" priority="1" numLanes="1" speed="13.89"/>
    <edge id="gneE496" from="north1" to="gneJ336" priority="1" numLanes="1" speed="13.89"/>
    <edge id="gneE497" from="gneJ336" to="gneJ337" priority="1" numLanes="1" speed="13.89"/>
    <edge id="gneE498" from="gneJ337" to="gneJ338" priority="1" numLanes="1" speed="13.89"/>
    <edge id="gneE499" from="gneJ338" to="gneJ339" priority="1" numLanes="1" speed="13.89"/>
    <edge id="gneE500" from="gneJ339" to="gneJ340" priority="1" numLanes="1" speed="13.89"/>
    <edge id="gneE504" from="gneJ340" to="gneJ344" priority="1" numLanes="1" speed="13.89"/>
    <edge id="gneE505" from="gneJ344" to="gneJ8" priority="1" numLanes="1" speed="13.89"/>
    <edge id="gneE506" from="gneJ345" to="gneJ10" priority="1" numLanes="1" speed="13.89"/>
    <edge id="gneE507" from="north2" to="gneJ346" priority="1" numLanes="1" speed="13.89"/>
    <edge id="gneE508" from="gneJ346" to="gneJ347" priority="1" numLanes="1" speed="13.89"/>
    <edge id="gneE509" from="gneJ347" to="gneJ348" priority="1" numLanes="1" speed="13.89"/>
    <edge id="gneE510" from="gneJ348" to="gneJ349" priority="1" numLanes="1" speed="13.89"/>
    <edge id="gneE511" from="gneJ349" to="gneJ350" priority="1" numLanes="1" speed="13.89"/>
    <edge id="gneE512" from="gneJ350" to="gneJ345" priority="1" numLanes="1" speed="13.89"/>
    <edge id="gneE513" from="north3" to="gneJ351" priority="1" numLanes="1" speed="13.89"/>
    <edge id="gneE514" from="gneJ351" to="gneJ352" priority="1" numLanes="1" speed="13.89"/>
    <edge id="gneE515" from="gneJ352" to="gneJ353" priority="1" numLanes="1" speed="13.89"/>
    <edge id="gneE516" from="gneJ353" to="gneJ354" priority="1" numLanes="1" speed="13.89"/>
    <edge id="gneE517" from="gneJ354" to="gneJ355" priority="1" numLanes="1" speed="13.89"/>
    <edge id="gneE518" from="gneJ355" to="gneJ356" priority="1" numLanes="1" speed="13.89"/>
    <edge id="gneE519" from="gneJ356" to="gneJ12" priority="1" numLanes="1" speed="13.89"/>
    <edge id="gneE520" from="gneJ207" to="gneJ357" priority="1" numLanes="1" speed="13.89"/>
    <edge id="gneE521" from="gneJ357" to="gneJ358" priority="1" numLanes="1" speed="13.89"/>
    <edge id="gneE522" from="gneJ358" to="gneJ359" priority="1" numLanes="1" speed="13.89"/>
    <edge id="gneE523" from="gneJ359" to="gneJ360" priority="1" numLanes="1" speed="13.89"/>
    <edge id="gneE524" from="gneJ360" to="gneJ361" priority="1" numLanes="1" speed="13.89"/>
    <edge id="gneE525" from="gneJ361" to="gneJ362" priority="1" numLanes="1" speed="13.89"/>
    <edge id="gneE526" from="gneJ362" to="north-out1" priority="1" numLanes="1" speed="13.89"/>
    <edge id="gneE527" from="gneJ5" to="gneJ363" priority="1" numLanes="1" speed="13.89"/>
    <edge id="gneE528" from="gneJ363" to="gneJ364" priority="1" numLanes="1" speed="13.89"/>
    <edge id="gneE529" from="gneJ364" to="gneJ365" priority="1" numLanes="1" speed="13.89"/>
    <edge id="gneE530" from="gneJ365" to="gneJ366" priority="1" numLanes="1" speed="13.89"/>
    <edge id="gneE531" from="gneJ366" to="gneJ367" priority="1" numLanes="1" speed="13.89"/>
    <edge id="gneE532" from="gneJ367" to="gneJ368" priority="1" numLanes="1" speed="13.89"/>
    <edge id="gneE533" from="gneJ368" to="north-out2" priority="1" numLanes="1" speed="13.89"/>
    <edge id="gneE534" from="gneJ7" to="gneJ369" priority="1" numLanes="1" speed="13.89"/>
    <edge id="gneE535" from="gneJ369" to="gneJ370" priority="1" numLanes="1" speed="13.89"/>
    <edge id="gneE536" from="gneJ370" to="gneJ371" priority="1" numLanes="1" speed="13.89"/>
    <edge id="gneE537" from="gneJ371" to="gneJ372" priority="1" numLanes="1" speed="13.89"/>
    <edge id="gneE538" from="gneJ372" to="gneJ373" priority="1" numLanes="1" speed="13.89"/>
    <edge id="gneE539" from="gneJ373" to="gneJ374" priority="1" numLanes="1" speed="13.89"/>
    <edge id="gneE540" from="gneJ374" to="north-out3" priority="1" numLanes="1" speed="13.89"/>
    <edge id="gneE541" from="gneJ361" to="gneJ368" priority="1" numLanes="1" speed="13.89"/>
    <edge id="gneE542" from="gneJ367" to="gneJ362" priority="1" numLanes="1" speed="13.89"/>
    <edge id="gneE543" from="gneJ373" to="gneJ368" priority="1" numLanes="1" speed="13.89"/>
    <edge id="gneE544" from="gneJ367" to="gneJ374" priority="1" numLanes="1" speed="13.89"/>
    <edge id="gneE545" from="gneJ371" to="gneJ366" priority="1" numLanes="1" speed="13.89"/>
    <edge id="gneE546" from="gneJ365" to="gneJ372" priority="1" numLanes="1" speed="13.89"/>
    <edge id="gneE547" from="gneJ365" to="gneJ360" priority="1" numLanes="1" speed="13.89"/>
    <edge id="gneE548" from="gneJ359" to="gneJ366" priority="1" numLanes="1" speed="13.89"/>
    <edge id="gneE549" from="gneJ369" to="gneJ364" priority="1" numLanes="1" speed="13.89"/>
    <edge id="gneE550" from="gneJ363" to="gneJ370" priority="1" numLanes="1" speed="13.89"/>
    <edge id="gneE551" from="gneJ363" to="gneJ358" priority="1" numLanes="1" speed="13.89"/>
    <edge id="gneE552" from="gneJ357" to="gneJ364" priority="1" numLanes="1" speed="13.89"/>
    <edge id="gneE553" from="gneJ351" to="gneJ347" priority="1" numLanes="1" speed="13.89"/>
    <edge id="gneE554" from="gneJ346" to="gneJ352" priority="1" numLanes="1" speed="13.89"/>
    <edge id="gneE555" from="gneJ336" to="gneJ347" priority="1" numLanes="1" speed="13.89"/>
    <edge id="gneE556" from="gneJ346" to="gneJ337" priority="1" numLanes="1" speed="13.89"/>
    <edge id="gneE557" from="gneJ338" to="gneJ349" priority="1" numLanes="1" speed="13.89"/>
    <edge id="gneE559" from="gneJ348" to="gneJ339" priority="1" numLanes="1" speed="13.89"/>
    <edge id="gneE560" from="gneJ353" to="gneJ349" priority="1" numLanes="1" speed="13.89"/>
    <edge id="gneE561" from="gneJ348" to="gneJ354" priority="1" numLanes="1" speed="13.89"/>
    <edge id="gneE562" from="gneJ355" to="gneJ345" priority="1" numLanes="1" speed="13.89"/>
    <edge id="gneE563" from="gneJ350" to="gneJ356" priority="1" numLanes="1" speed="13.89"/>
    <edge id="gneE564" from="gneJ340" to="gneJ345" priority="1" numLanes="1" speed="13.89"/>
    <edge id="gneE566" from="gneJ350" to="gneJ344" priority="1" numLanes="1" speed="13.89"/>
    <edge id="gneE576" from="east3" to="gneJ380" priority="1" numLanes="1" speed="13.89"/>
    <edge id="gneE577" from="gneJ380" to="gneJ381" priority="1" numLanes="1" speed="13.89"/>
    <edge id="gneE578" from="gneJ381" to="gneJ382" priority="1" numLanes="1" speed="13.89"/>
    <edge id="gneE579" from="gneJ382" to="gneJ383" priority="1" numLanes="1" speed="13.89"/>
    <edge id="gneE580" from="gneJ383" to="gneJ384" priority="1" numLanes="1" speed="13.89"/>
    <edge id="gneE581" from="gneJ384" to="gneJ385" priority="1" numLanes="1" speed="13.89"/>
    <edge id="gneE582" from="gneJ385" to="gneJ24" priority="1" numLanes="1" speed="13.89"/>
    <edge id="gneE583" from="east2" to="gneJ386" priority="1" numLanes="1" speed="13.89"/>
    <edge id="gneE584" from="gneJ386" to="gneJ387" priority="1" numLanes="1" speed="13.89"/>
    <edge id="gneE585" from="gneJ387" to="gneJ388" priority="1" numLanes="1" speed="13.89"/>
    <edge id="gneE587" from="gneJ388" to="gneJ391" priority="1" numLanes="1" speed="13.89"/>
    <edge id="gneE588" from="gneJ391" to="gneJ392" priority="1" numLanes="1" speed="13.89"/>
    <edge id="gneE589" from="gneJ392" to="gneJ393" priority="1" numLanes="1" speed="13.89"/>
    <edge id="gneE590" from="gneJ393" to="gneJ22" priority="1" numLanes="1" speed="13.89"/>
    <edge id="gneE591" from="east1" to="gneJ394" priority="1" numLanes="1" speed="13.89"/>
    <edge id="gneE592" from="gneJ394" to="gneJ395" priority="1" numLanes="1" speed="13.89"/>
    <edge id="gneE593" from="gneJ395" to="gneJ396" priority="1" numLanes="1" speed="13.89"/>
    <edge id="gneE594" from="gneJ396" to="gneJ397" priority="1" numLanes="1" speed="13.89"/>
    <edge id="gneE595" from="gneJ397" to="gneJ398" priority="1" numLanes="1" speed="13.89"/>
    <edge id="gneE596" from="gneJ398" to="gneJ399" priority="1" numLanes="1" speed="13.89"/>
    <edge id="gneE597" from="gneJ399" to="gneJ20" priority="1" numLanes="1" speed="13.89"/>
    <edge id="gneE598" from="gneJ15" to="gneJ400" priority="1" numLanes="1" speed="13.89"/>
    <edge id="gneE599" from="gneJ400" to="gneJ401" priority="1" numLanes="1" speed="13.89"/>
    <edge id="gneE600" from="gneJ401" to="gneJ402" priority="1" numLanes="1" speed="13.89"/>
    <edge id="gneE602" from="gneJ402" to="gneJ405" priority="1" numLanes="1" speed="13.89"/>
    <edge id="gneE603" from="gneJ405" to="gneJ406" priority="1" numLanes="1" speed="13.89"/>
    <edge id="gneE604" from="gneJ406" to="gneJ407" priority="1" numLanes="1" speed="13.89"/>
    <edge id="gneE605" from="gneJ407" to="east-out3" priority="1" numLanes="1" speed="13.89"/>
    <edge id="gneE632" from="gneJ17" to="gneJ420" priority="1" numLanes="1" speed="13.89"/>
    <edge id="gneE633" from="gneJ420" to="gneJ421" priority="1" numLanes="1" speed="13.89"/>
    <edge id="gneE634" from="gneJ421" to="gneJ422" priority="1" numLanes="1" speed="13.89"/>
    <edge id="gneE635" from="gneJ422" to="gneJ423" priority="1" numLanes="1" speed="13.89"/>
    <edge id="gneE636" from="gneJ423" to="gneJ424" priority="1" numLanes="1" speed="13.89"/>
    <edge id="gneE637" from="gneJ424" to="gneJ425" priority="1" numLanes="1" speed="13.89"/>
    <edge id="gneE638" from="gneJ425" to="east-out2" priority="1" numLanes="1" speed="13.89"/>
    <edge id="gneE639" from="gneJ19" to="gneJ426" priority="1" numLanes="1" speed="13.89"/>
    <edge id="gneE640" from="gneJ426" to="gneJ427" priority="1" numLanes="1" speed="13.89"/>
    <edge id="gneE641" from="gneJ427" to="gneJ428" priority="1" numLanes="1" speed="13.89"/>
    <edge id="gneE642" from="gneJ428" to="gneJ429" priority="1" numLanes="1" speed="13.89"/>
    <edge id="gneE643" from="gneJ429" to="gneJ430" priority="1" numLanes="1" speed="13.89"/>
    <edge id="gneE644" from="gneJ430" to="gneJ431" priority="1" numLanes="1" speed="13.89"/>
    <edge id="gneE645" from="gneJ431" to="east-out1" priority="1" numLanes="1" speed="13.89"/>
    <edge id="gneE646" from="gneJ420" to="gneJ401" priority="1" numLanes="1" speed="13.89"/>
    <edge id="gneE647" from="gneJ400" to="gneJ421" priority="1" numLanes="1" speed="13.89"/>
    <edge id="gneE648" from="gneJ422" to="gneJ405" priority="1" numLanes="1" speed="13.89"/>
    <edge id="gneE649" from="gneJ402" to="gneJ423" priority="1" numLanes="1" speed="13.89"/>
    <edge id="gneE650" from="gneJ424" to="gneJ407" priority="1" numLanes="1" speed="13.89"/>
    <edge id="gneE651" from="gneJ406" to="gneJ425" priority="1" numLanes="1" speed="13.89"/>
    <edge id="gneE652" from="gneJ426" to="gneJ421" priority="1" numLanes="1" speed="13.89"/>
    <edge id="gneE653" from="gneJ420" to="gneJ427" priority="1" numLanes="1" speed="13.89"/>
    <edge id="gneE654" from="gneJ428" to="gneJ423" priority="1" numLanes="1" speed="13.89"/>
    <edge id="gneE655" from="gneJ422" to="gneJ429" priority="1" numLanes="1" speed="13.89"/>
    <edge id="gneE656" from="gneJ430" to="gneJ425" priority="1" numLanes="1" speed="13.89"/>
    <edge id="gneE657" from="gneJ424" to="gneJ431" priority="1" numLanes="1" speed="13.89"/>
    <edge id="gneE658" from="gneJ380" to="gneJ387" priority="1" numLanes="1" speed="13.89"/>
    <edge id="gneE659" from="gneJ386" to="gneJ381" priority="1" numLanes="1" speed="13.89"/>
    <edge id="gneE660" from="gneJ386" to="gneJ395" priority="1" numLanes="1" speed="13.89"/>
    <edge id="gneE661" from="gneJ394" to="gneJ387" priority="1" numLanes="1" speed="13.89"/>
    <edge id="gneE662" from="gneJ396" to="gneJ391" priority="1" numLanes="1" speed="13.89"/>
    <edge id="gneE663" from="gneJ388" to="gneJ383" priority="1" numLanes="1" speed="13.89"/>
    <edge id="gneE664" from="gneJ382" to="gneJ391" priority="1" numLanes="1" speed="13.89"/>
    <edge id="gneE665" from="gneJ388" to="gneJ397" priority="1" numLanes="1" speed="13.89"/>
    <edge id="gneE666" from="gneJ384" to="gneJ393" priority="1" numLanes="1" speed="13.89"/>
    <edge id="gneE667" from="gneJ392" to="gneJ399" priority="1" numLanes="1" speed="13.89"/>
    <edge id="gneE668" from="gneJ398" to="gneJ393" priority="1" numLanes="1" speed="13.89"/>
    <edge id="gneE669" from="gneJ392" to="gneJ385" priority="1" numLanes="1" speed="13.89"/>
    <edge id="gneE670" from="south3" to="gneJ432" priority="1" numLanes="1" speed="13.89"/>
    <edge id="gneE671" from="gneJ432" to="gneJ433" priority="1" numLanes="1" speed="13.89"/>
    <edge id="gneE672" from="gneJ433" to="gneJ434" priority="1" numLanes="1" speed="13.89"/>
    <edge id="gneE673" from="gneJ434" to="gneJ435" priority="1" numLanes="1" speed="13.89"/>
    <edge id="gneE674" from="gneJ435" to="gneJ436" priority="1" numLanes="1" speed="13.89"/>
    <edge id="gneE675" from="gneJ436" to="gneJ437" priority="1" numLanes="1" speed="13.89"/>
    <edge id="gneE676" from="gneJ437" to="gneJ6" priority="1" numLanes="1" speed="13.89"/>
    <edge id="gneE677" from="south2" to="gneJ438" priority="1" numLanes="1" speed="13.89"/>
    <edge id="gneE678" from="gneJ438" to="gneJ439" priority="1" numLanes="1" speed="13.89"/>
    <edge id="gneE679" from="gneJ439" to="gneJ440" priority="1" numLanes="1" speed="13.89"/>
    <edge id="gneE680" from="gneJ440" to="gneJ441" priority="1" numLanes="1" speed="13.89"/>
    <edge id="gneE681" from="gneJ441" to="gneJ442" priority="1" numLanes="1" speed="13.89"/>
    <edge id="gneE682" from="gneJ442" to="gneJ443" priority="1" numLanes="1" speed="13.89"/>
    <edge id="gneE683" from="gneJ443" to="gneJ4" priority="1" numLanes="1" speed="13.89"/>
    <edge id="gneE684" from="south1" to="gneJ444" priority="1" numLanes="1" speed="13.89"/>
    <edge id="gneE685" from="gneJ444" to="gneJ445" priority="1" numLanes="1" speed="13.89"/>
    <edge id="gneE686" from="gneJ445" to="gneJ446" priority="1" numLanes="1" speed="13.89"/>
    <edge id="gneE687" from="gneJ446" to="gneJ447" priority="1" numLanes="1" speed="13.89"/>
    <edge id="gneE688" from="gneJ447" to="gneJ448" priority="1" numLanes="1" speed="13.89"/>
    <edge id="gneE689" from="gneJ448" to="gneJ449" priority="1" numLanes="1" speed="13.89"/>
    <edge id="gneE690" from="gneJ449" to="gneJ2" priority="1" numLanes="1" speed="13.89"/>
    <edge id="gneE691" from="gneJ208" to="gneJ450" priority="1" numLanes="1" speed="13.89"/>
    <edge id="gneE692" from="gneJ450" to="gneJ451" priority="1" numLanes="1" speed="13.89"/>
    <edge id="gneE693" from="gneJ452" to="gneJ453" priority="1" numLanes="1" speed="13.89"/>
    <edge id="gneE694" from="gneJ451" to="gneJ452" priority="1" numLanes="1" speed="13.89"/>
    <edge id="gneE695" from="gneJ453" to="gneJ454" priority="1" numLanes="1" speed="13.89"/>
    <edge id="gneE696" from="gneJ454" to="gneJ455" priority="1" numLanes="1" speed="13.89"/>
    <edge id="gneE697" from="gneJ455" to="south-out1" priority="1" numLanes="1" speed="13.89"/>
    <edge id="gneE698" from="gneJ11" to="gneJ456" priority="1" numLanes="1" speed="13.89"/>
    <edge id="gneE699" from="gneJ456" to="gneJ457" priority="1" numLanes="1" speed="13.89"/>
    <edge id="gneE700" from="gneJ457" to="gneJ458" priority="1" numLanes="1" speed="13.89"/>
    <edge id="gneE701" from="gneJ458" to="gneJ459" priority="1" numLanes="1" speed="13.89"/>
    <edge id="gneE702" from="gneJ459" to="gneJ460" priority="1" numLanes="1" speed="13.89"/>
    <edge id="gneE703" from="gneJ460" to="gneJ461" priority="1" numLanes="1" speed="13.89"/>
    <edge id="gneE704" from="gneJ461" to="south-out2" priority="1" numLanes="1" speed="13.89"/>
    <edge id="gneE705" from="gneJ165" to="gneJ462" priority="1" numLanes="1" speed="13.89"/>
    <edge id="gneE706" from="gneJ462" to="gneJ463" priority="1" numLanes="1" speed="13.89"/>
    <edge id="gneE707" from="gneJ463" to="gneJ464" priority="1" numLanes="1" speed="13.89"/>
    <edge id="gneE708" from="gneJ464" to="gneJ465" priority="1" numLanes="1" speed="13.89"/>
    <edge id="gneE709" from="gneJ465" to="gneJ466" priority="1" numLanes="1" speed="13.89"/>
    <edge id="gneE710" from="gneJ466" to="gneJ467" priority="1" numLanes="1" speed="13.89"/>
    <edge id="gneE711" from="gneJ467" to="south-out3" priority="1" numLanes="1" speed="13.89"/>
    <edge id="gneE712" from="gneJ432" to="gneJ439" priority="1" numLanes="1" speed="13.89"/>
    <edge id="gneE713" from="gneJ438" to="gneJ433" priority="1" numLanes="1" speed="13.89"/>
    <edge id="gneE714" from="gneJ444" to="gneJ439" priority="1" numLanes="1" speed="13.89"/>
    <edge id="gneE715" from="gneJ438" to="gneJ445" priority="1" numLanes="1" speed="13.89"/>
    <edge id="gneE716" from="gneJ446" to="gneJ441" priority="1" numLanes="1" speed="13.89"/>
    <edge id="gneE717" from="gneJ440" to="gneJ447" priority="1" numLanes="1" speed="13.89"/>
    <edge id="gneE718" from="gneJ440" to="gneJ435" priority="1" numLanes="1" speed="13.89"/>
    <edge id="gneE719" from="gneJ434" to="gneJ441" priority="1" numLanes="1" speed="13.89"/>
    <edge id="gneE720" from="gneJ448" to="gneJ443" priority="1" numLanes="1" speed="13.89"/>
    <edge id="gneE721" from="gneJ442" to="gneJ449" priority="1" numLanes="1" speed="13.89"/>
    <edge id="gneE722" from="gneJ442" to="gneJ437" priority="1" numLanes="1" speed="13.89"/>
    <edge id="gneE723" from="gneJ436" to="gneJ443" priority="1" numLanes="1" speed="13.89"/>
    <edge id="gneE724" from="gneJ450" to="gneJ457" priority="1" numLanes="1" speed="13.89"/>
    <edge id="gneE725" from="gneJ456" to="gneJ451" priority="1" numLanes="1" speed="13.89"/>
    <edge id="gneE726" from="gneJ462" to="gneJ457" priority="1" numLanes="1" speed="13.89"/>
    <edge id="gneE727" from="gneJ456" to="gneJ463" priority="1" numLanes="1" speed="13.89"/>
    <edge id="gneE728" from="gneJ464" to="gneJ459" priority="1" numLanes="1" speed="13.89"/>
    <edge id="gneE729" from="gneJ458" to="gneJ465" priority="1" numLanes="1" speed="13.89"/>
    <edge id="gneE730" from="gneJ452" to="gneJ459" priority="1" numLanes="1" speed="13.89"/>
    <edge id="gneE731" from="gneJ458" to="gneJ453" priority="1" numLanes="1" speed="13.89"/>
    <edge id="gneE732" from="gneJ454" to="gneJ461" priority="1" numLanes="1" speed="13.89"/>
    <edge id="gneE733" from="gneJ460" to="gneJ455" priority="1" numLanes="1" speed="13.89"/>
    <edge id="gneE734" from="gneJ460" to="gneJ467" priority="1" numLanes="1" speed="13.89"/>
    <edge id="gneE735" from="gneJ466" to="gneJ461" priority="1" numLanes="1" speed="13.89"/>
    <edge id="gneE736" from="gneJ18" to="west-light1" priority="1" numLanes="1" speed="13.89"/>
    <edge id="gneE737" from="gneJ16" to="west-light2" priority="1" numLanes="1" speed="13.89"/>
    <edge id="gneE738" from="gneJ14" to="west-light3" priority="1" numLanes="1" speed="13.89"/>
    <edge id="gneE739" from="gneJ471" to="gneJ274" priority="1" numLanes="1" speed="13.89"/>
    <edge id="gneE740" from="gneJ472" to="gneJ273" priority="1" numLanes="1" speed="13.89"/>
    <edge id="gneE741" from="gneJ473" to="gneJ272" priority="1" numLanes="1" speed="13.89"/>
    <edge id="gneE742" from="gneJ268" to="south-light1" priority="1" numLanes="1" speed="13.89"/>
    <edge id="gneE743" from="gneJ269" to="south-light2" priority="1" numLanes="1" speed="13.89"/>
    <edge id="gneE744" from="gneJ266" to="south-light3" priority="1" numLanes="1" speed="13.89"/>
    <edge id="gneE745" from="gneJ477" to="gneJ15" priority="1" numLanes="1" speed="13.89"/>
    <edge id="gneE746" from="gneJ478" to="gneJ17" priority="1" numLanes="1" speed="13.89"/>
    <edge id="gneE747" from="gneJ479" to="gneJ19" priority="1" numLanes="1" speed="13.89"/>
    <edge id="gneE748" from="gneJ20" to="east-light1" priority="1" numLanes="1" speed="13.89"/>
    <edge id="gneE749" from="gneJ22" to="east-light2" priority="1" numLanes="1" speed="13.89"/>
    <edge id="gneE750" from="gneJ24" to="east-light3" priority="1" numLanes="1" speed="13.89"/>
    <edge id="gneE751" from="gneJ483" to="gneJ7" priority="1" numLanes="1" speed="13.89"/>
    <edge id="gneE752" from="gneJ484" to="gneJ5" priority="1" numLanes="1" speed="13.89"/>
    <edge id="gneE753" from="gneJ485" to="gneJ207" priority="1" numLanes="1" speed="13.89"/>
    <edge id="gneE754" from="gneJ8" to="north-light1" priority="1" numLanes="1" speed="13.89"/>
    <edge id="gneE755" from="gneJ10" to="north-light2" priority="1" numLanes="1" speed="13.89"/>
    <edge id="gneE756" from="gneJ12" to="north-light3" priority="1" numLanes="1" speed="13.89"/>
    <edge id="gneE762" from="gneJ489" to="gneJ25" priority="1" numLanes="1" speed="13.89"/>
    <edge id="gneE763" from="gneJ490" to="gneJ45" priority="1" numLanes="1" speed="13.89"/>
    <edge id="gneE764" from="gneJ491" to="gneJ21" priority="1" numLanes="1" speed="13.89"/>
    <edge id="gneE765" from="west-light1" to="gneJ485" priority="1" numLanes="1" speed="13.89"/>
    <edge id="gneE766" from="south-light1" to="gneJ491" priority="1" numLanes="1" speed="13.89"/>
    <edge id="gneE767" from="east-light1" to="gneJ473" priority="1" numLanes="1" speed="13.89"/>
    <edge id="gneE768" from="north-light1" to="gneJ479" priority="1" numLanes="1" speed="13.89"/>
    <edge id="gneE769" from="south-light3" to="gneJ477" priority="1" numLanes="1" speed="13.89"/>
    <edge id="gneE770" from="east-light3" to="gneJ483" priority="1" numLanes="1" speed="13.89"/>
    <edge id="gneE771" from="north-light3" to="gneJ489" priority="1" numLanes="1" speed="13.89"/>
    <edge id="gneE772" from="west-light3" to="gneJ471" priority="1" numLanes="1" speed="13.89"/>
    <edge id="gneE773" from="south-light3" to="gneJ483" priority="1" numLanes="1" speed="13.89"/>
    <edge id="gneE774" from="south-light2" to="gneJ484" priority="1" numLanes="1" speed="13.89"/>
    <edge id="gneE775" from="south-light1" to="gneJ485" priority="1" numLanes="1" speed="13.89"/>
    <edge id="gneE776" from="north-light1" to="gneJ473" priority="1" numLanes="1" speed="13.89"/>
    <edge id="gneE777" from="north-light2" to="gneJ472" priority="1" numLanes="1" speed="13.89"/>