<?xml version="1.0" encoding="UTF-8"?>

<!-- generated on 6/25/2018 12:01:26 PM by Netedit Version 0.32.0
<?xml version="1.0" encoding="UTF-8"?>

<configuration xmlns:xsi="http://www.w3.org/2001/XMLSchema-instance" xsi:noNamespaceSchemaLocation="http://sumo.dlr.de/xsd/netconvertConfiguration.xsd">

    <input>
        <sumo-net-file value="C:\Users\abeld\Downloads\Intersection\Cloverleaf\cloverleaf%20-%20hand.net.xml"/>
    </input>

    <output>
        <output-file value="C:\Users\abeld\Downloads\Intersection\Cloverleaf\cloverleaf%20-%20hand.net.xml"/>
    </output>

    <processing>
        <no-turnarounds value="true"/>
        <offset.disable-normalization value="true"/>
        <lefthand value="false"/>
        <junctions.corner-detail value="0"/>
        <rectangular-lane-cut value="false"/>
        <walkingareas value="false"/>
    </processing>

</configuration>
-->

<net version="0.27" xmlns:xsi="http://www.w3.org/2001/XMLSchema-instance" xsi:noNamespaceSchemaLocation="http://sumo.dlr.de/xsd/net_file.xsd">

    <location netOffset="0.00,0.00" convBoundary="-620.00,-570.00,800.00,780.00" origBoundary="-10000000000.00,-10000000000.00,10000000000.00,10000000000.00" projParameter="!"/>

    <edge id=":gneJ10_0" function="internal">
        <lane id=":gneJ10_0_0" index="0" speed="13.89" length="0.10" shape="38.35,250.00 38.35,250.00"/>
    </edge>
    <edge id=":gneJ102_0" function="internal">
        <lane id=":gneJ102_0_0" index="0" speed="13.89" length="15.10" shape="290.46,88.95 287.38,86.64 284.30,84.26 281.06,82.40 277.52,81.65"/>
    </edge>
    <edge id=":gneJ102_1" function="internal">
        <lane id=":gneJ102_1_0" index="0" speed="13.89" length="15.15" shape="292.03,85.75 288.46,84.44 284.87,83.11 281.23,82.07 277.52,81.65"/>
    </edge>
    <edge id=":gneJ102_2" function="internal">
        <lane id=":gneJ102_2_0" index="0" speed="13.89" length="13.58" shape="291.09,81.65 277.52,81.65"/>
    </edge>
    <edge id=":gneJ103_0" function="internal">
        <lane id=":gneJ103_0_0" index="0" speed="13.89" length="13.12" shape="290.51,95.24 287.25,94.01 284.34,92.85 281.37,91.99 277.97,91.65"/>
    </edge>
    <edge id=":gneJ103_1" function="internal">
        <lane id=":gneJ103_1_0" index="0" speed="13.89" length="13.65" shape="291.63,91.65 277.97,91.65"/>
    </edge>
    <edge id=":gneJ103_2" function="internal">
        <lane id=":gneJ103_2_0" index="0" speed="13.89" length="13.63" shape="291.04,88.06 287.70,89.29 284.60,90.45 281.46,91.31 277.97,91.65"/>
    </edge>
    <edge id=":gneJ104_0" function="internal">
        <lane id=":gneJ104_0_0" index="0" speed="13.89" length="13.11" shape="291.63,101.65 278.52,101.65"/>
    </edge>
    <edge id=":gneJ104_1" function="internal">
        <lane id=":gneJ104_1_0" index="0" speed="13.89" length="15.68" shape="293.49,97.24 289.85,98.60 286.10,100.04 282.30,101.18 278.52,101.65"/>
    </edge>
    <edge id=":gneJ104_2" function="internal">
        <lane id=":gneJ104_2_0" index="0" speed="13.89" length="15.65" shape="291.92,94.04 288.77,96.40 285.53,98.88 282.13,100.85 278.52,101.65"/>
    </edge>
    <edge id=":gneJ106_0" function="internal">
        <lane id=":gneJ106_0_0" index="0" speed="13.89" length="0.75" shape="120.77,-28.35 120.55,-28.35 120.39,-28.33 120.25,-28.28 120.05,-28.18"/>
    </edge>
    <edge id=":gneJ107_0" function="internal">
        <lane id=":gneJ107_0_0" index="0" speed="13.89" length="1.26" shape="158.35,-8.65 158.32,-8.97 158.23,-9.27 158.09,-9.54 157.88,-9.79"/>
    </edge>
    <edge id=":gneJ108_0" function="internal">
        <lane id=":gneJ108_0_0" index="0" speed="13.89" length="1.26" shape="139.79,-27.88 139.54,-28.09 139.27,-28.23 138.97,-28.32 138.65,-28.35"/>
    </edge>
    <edge id=":gneJ109_0" function="internal">
        <lane id=":gneJ109_0_0" index="0" speed="13.89" length="10.19" shape="137.01,115.35 134.38,113.83 132.57,112.66 130.66,111.91 127.73,111.65"/>
    </edge>
    <edge id=":gneJ109_1" function="internal">
        <lane id=":gneJ109_1_0" index="0" speed="13.89" length="10.16" shape="137.89,111.65 127.73,111.65"/>
    </edge>
    <edge id=":gneJ11_0" function="internal">
        <lane id=":gneJ11_0_0" index="0" speed="13.89" length="0.10" shape="38.35,-100.00 38.35,-100.00"/>
    </edge>
    <edge id=":gneJ110_0" function="internal">
        <lane id=":gneJ110_0_0" index="0" speed="13.89" length="10.19" shape="-17.73,111.65 -20.66,111.91 -22.57,112.66 -24.38,113.83 -27.01,115.35"/>
    </edge>
    <edge id=":gneJ110_1" function="internal">
        <lane id=":gneJ110_1_0" index="0" speed="13.89" length="10.16" shape="-17.73,111.65 -27.89,111.65"/>
    </edge>
    <edge id=":gneJ111_0" function="internal">
        <lane id=":gneJ111_0_0" index="0" speed="13.89" length="10.16" shape="18.35,157.89 18.35,147.73"/>
    </edge>
    <edge id=":gneJ111_1" function="internal">
        <lane id=":gneJ111_1_0" index="0" speed="13.89" length="10.19" shape="14.65,157.01 16.17,154.38 17.34,152.57 18.09,150.66 18.35,147.73"/>
    </edge>
    <edge id=":gneJ112_0" function="internal">
        <lane id=":gneJ112_0_0" index="0" speed="13.89" length="10.19" shape="18.35,2.27 18.09,-0.66 17.34,-2.57 16.17,-4.38 14.65,-7.01"/>
    </edge>
    <edge id=":gneJ112_1" function="internal">
        <lane id=":gneJ112_1_0" index="0" speed="13.89" length="10.16" shape="18.35,2.27 18.35,-7.89"/>
    </edge>
    <edge id=":gneJ113_0" function="internal">
        <lane id=":gneJ113_0_0" index="0" speed="13.89" length="1.04" shape="-38.29,120.99 -38.56,121.13 -38.74,121.26 -38.87,121.44 -39.01,121.71"/>
    </edge>
    <edge id=":gneJ114_0" function="internal">
        <lane id=":gneJ114_0_0" index="0" speed="13.89" length="0.75" shape="-48.18,140.05 -48.28,140.25 -48.33,140.39 -48.35,140.55 -48.35,140.77"/>
    </edge>
    <edge id=":gneJ115_0" function="internal">
        <lane id=":gneJ115_0_0" index="0" speed="13.89" length="1.28" shape="-48.35,158.65 -48.34,159.03 -48.28,159.29 -48.14,159.51 -47.88,159.79"/>
    </edge>
    <edge id=":gneJ116_0" function="internal">
        <lane id=":gneJ116_0_0" index="0" speed="13.89" length="1.26" shape="-29.79,177.88 -29.54,178.09 -29.27,178.23 -28.97,178.32 -28.65,178.35"/>
    </edge>
    <edge id=":gneJ117_0" function="internal">
        <lane id=":gneJ117_0_0" index="0" speed="13.89" length="0.75" shape="-10.77,178.35 -10.55,178.35 -10.39,178.33 -10.25,178.28 -10.05,178.18"/>
    </edge>
    <edge id=":gneJ118_0" function="internal">
        <lane id=":gneJ118_0_0" index="0" speed="13.89" length="1.04" shape="8.29,169.01 8.56,168.87 8.74,168.74 8.87,168.56 9.01,168.29"/>
    </edge>
    <edge id=":gneJ119_0" function="internal">
        <lane id=":gneJ119_0_0" index="0" speed="13.89" length="1.04" shape="100.99,168.29 101.13,168.56 101.26,168.74 101.44,168.87 101.71,169.01"/>
    </edge>
    <edge id=":gneJ12_0" function="internal">
        <lane id=":gneJ12_0_0" index="0" speed="13.89" length="7.19" shape="28.35,252.85 28.11,251.66 27.40,250.28 26.22,248.69 24.56,246.89"/>
    </edge>
    <edge id=":gneJ12_1" function="internal">
        <lane id=":gneJ12_1_0" index="0" speed="13.89" length="7.53" shape="28.35,252.85 28.35,245.32"/>
    </edge>
    <edge id=":gneJ120_0" function="internal">
        <lane id=":gneJ120_0_0" index="0" speed="13.89" length="1.04" shape="149.01,121.71 148.87,121.44 148.74,121.26 148.56,121.13 148.29,120.99"/>
    </edge>
    <edge id=":gneJ121_0" function="internal">
        <lane id=":gneJ121_0_0" index="0" speed="13.89" length="0.75" shape="120.05,178.18 120.25,178.28 120.39,178.33 120.55,178.35 120.77,178.35"/>
    </edge>
    <edge id=":gneJ122_0" function="internal">
        <lane id=":gneJ122_0_0" index="0" speed="13.89" length="0.75" shape="158.35,140.77 158.35,140.55 158.33,140.39 158.28,140.25 158.18,140.05"/>
    </edge>
    <edge id=":gneJ123_0" function="internal">
        <lane id=":gneJ123_0_0" index="0" speed="13.89" length="1.26" shape="138.65,178.35 138.97,178.32 139.27,178.23 139.54,178.09 139.79,177.88"/>
    </edge>
    <edge id=":gneJ124_0" function="internal">
        <lane id=":gneJ124_0_0" index="0" speed="13.89" length="1.26" shape="157.88,159.79 158.09,159.54 158.23,159.27 158.32,158.97 158.35,158.65"/>
    </edge>
    <edge id=":gneJ126_0" function="internal">
        <lane id=":gneJ126_0_0" index="0" speed="13.89" length="1.04" shape="9.01,-18.29 8.87,-18.56 8.74,-18.74 8.56,-18.87 8.29,-19.01"/>
    </edge>
    <edge id=":gneJ127_0" function="internal">
        <lane id=":gneJ127_0_0" index="0" speed="13.89" length="0.75" shape="-10.05,-28.18 -10.25,-28.28 -10.39,-28.33 -10.55,-28.35 -10.77,-28.35"/>
    </edge>
    <edge id=":gneJ128_0" function="internal">
        <lane id=":gneJ128_0_0" index="0" speed="13.89" length="1.26" shape="-28.65,-28.35 -28.97,-28.32 -29.27,-28.23 -29.54,-28.09 -29.79,-27.88"/>
    </edge>
    <edge id=":gneJ129_0" function="internal">
        <lane id=":gneJ129_0_0" index="0" speed="13.89" length="1.04" shape="-39.01,28.29 -38.87,28.56 -38.74,28.74 -38.56,28.87 -38.29,29.01"/>
    </edge>
    <edge id=":gneJ13_0" function="internal">
        <lane id=":gneJ13_0_0" index="0" speed="13.89" length="7.53" shape="28.35,-95.32 28.35,-102.85"/>
    </edge>
    <edge id=":gneJ13_1" function="internal">
        <lane id=":gneJ13_1_0" index="0" speed="13.89" length="7.19" shape="24.56,-96.89 26.22,-98.69 27.40,-100.28 28.11,-101.66 28.35,-102.85"/>
    </edge>
    <edge id=":gneJ130_0" function="internal">
        <lane id=":gneJ130_0_0" index="0" speed="13.89" length="0.75" shape="-48.35,9.23 -48.35,9.45 -48.33,9.61 -48.28,9.75 -48.18,9.95"/>
    </edge>
    <edge id=":gneJ131_0" function="internal">
        <lane id=":gneJ131_0_0" index="0" speed="13.89" length="1.26" shape="-47.88,-9.79 -48.09,-9.54 -48.23,-9.27 -48.32,-8.97 -48.35,-8.65"/>
    </edge>
    <edge id=":gneJ134_0" function="internal">
        <lane id=":gneJ134_0_0" index="0" speed="13.89" length="13.11" shape="-181.63,48.35 -168.52,48.35"/>
    </edge>
    <edge id=":gneJ134_1" function="internal">
        <lane id=":gneJ134_1_0" index="0" speed="13.89" length="15.68" shape="-183.49,52.76 -179.85,51.40 -176.10,49.96 -172.30,48.82 -168.52,48.35"/>
    </edge>
    <edge id=":gneJ134_2" function="internal">
        <lane id=":gneJ134_2_0" index="0" speed="13.89" length="15.65" shape="-181.92,55.96 -178.77,53.60 -175.53,51.12 -172.13,49.15 -168.52,48.35"/>
    </edge>
    <edge id=":gneJ135_0" function="internal">
        <lane id=":gneJ135_0_0" index="0" speed="13.89" length="13.12" shape="-180.51,54.76 -177.25,55.99 -174.34,57.15 -171.37,58.01 -167.97,58.35"/>
    </edge>
    <edge id=":gneJ135_1" function="internal">
        <lane id=":gneJ135_1_0" index="0" speed="13.89" length="13.65" shape="-181.63,58.35 -167.97,58.35"/>
    </edge>
    <edge id=":gneJ135_2" function="internal">
        <lane id=":gneJ135_2_0" index="0" speed="13.89" length="13.63" shape="-181.04,61.94 -177.70,60.71 -174.60,59.55 -171.46,58.69 -167.97,58.35"/>
    </edge>
    <edge id=":gneJ136_0" function="internal">
        <lane id=":gneJ136_0_0" index="0" speed="13.89" length="15.10" shape="-180.46,61.05 -177.38,63.36 -174.30,65.74 -171.06,67.60 -167.52,68.35"/>
    </edge>
    <edge id=":gneJ136_1" function="internal">
        <lane id=":gneJ136_1_0" index="0" speed="13.89" length="15.15" shape="-182.03,64.25 -178.46,65.56 -174.87,66.89 -171.23,67.93 -167.52,68.35"/>
    </edge>
    <edge id=":gneJ136_2" function="internal">
        <lane id=":gneJ136_2_0" index="0" speed="13.89" length="13.58" shape="-181.09,68.35 -167.52,68.35"/>
    </edge>
    <edge id=":gneJ14_0" function="internal">
        <lane id=":gneJ14_0_0" index="0" speed="13.89" length="7.19" shape="-122.85,48.35 -121.66,48.11 -120.28,47.40 -118.69,46.22 -116.89,44.56"/>
    </edge>
    <edge id=":gneJ14_1" function="internal">
        <lane id=":gneJ14_1_0" index="0" speed="13.89" length="7.53" shape="-122.85,48.35 -115.32,48.35"/>
    </edge>
    <edge id=":gneJ141_0" function="internal">
        <lane id=":gneJ141_0_0" index="0" speed="13.89" length="13.58" shape="48.35,311.09 48.35,297.52"/>
    </edge>
    <edge id=":gneJ141_1" function="internal">
        <lane id=":gneJ141_1_0" index="0" speed="13.89" length="15.10" shape="41.05,310.46 43.36,307.38 45.74,304.30 47.60,301.06 48.35,297.52"/>
    </edge>
    <edge id=":gneJ141_2" function="internal">
        <lane id=":gneJ141_2_0" index="0" speed="13.89" length="15.15" shape="44.25,312.03 45.56,308.46 46.89,304.87 47.93,301.23 48.35,297.52"/>
    </edge>
    <edge id=":gneJ142_0" function="internal">
        <lane id=":gneJ142_0_0" index="0" speed="13.89" length="13.65" shape="38.35,311.63 38.35,297.97"/>
    </edge>
    <edge id=":gneJ142_1" function="internal">
        <lane id=":gneJ142_1_0" index="0" speed="13.89" length="13.63" shape="41.94,311.04 40.71,307.70 39.55,304.60 38.69,301.46 38.35,297.97"/>
    </edge>
    <edge id=":gneJ142_2" function="internal">
        <lane id=":gneJ142_2_0" index="0" speed="13.89" length="13.12" shape="34.76,310.51 35.99,307.25 37.15,304.34 38.01,301.37 38.35,297.97"/>
    </edge>
    <edge id=":gneJ143_0" function="internal">
        <lane id=":gneJ143_0_0" index="0" speed="13.89" length="13.11" shape="28.35,311.63 28.35,298.52"/>
    </edge>
    <edge id=":gneJ143_1" function="internal">
        <lane id=":gneJ143_1_0" index="0" speed="13.89" length="15.68" shape="32.76,313.49 31.40,309.85 29.96,306.10 28.82,302.30 28.35,298.52"/>
    </edge>
    <edge id=":gneJ143_2" function="internal">
        <lane id=":gneJ143_2_0" index="0" speed="13.89" length="15.65" shape="35.96,311.92 33.60,308.77 31.12,305.53 29.15,302.13 28.35,298.52"/>
    </edge>
    <edge id=":gneJ145_0" function="internal">
        <lane id=":gneJ145_0_0" index="0" speed="13.89" length="13.11" shape="81.65,-161.63 81.65,-148.52"/>
    </edge>
    <edge id=":gneJ145_1" function="internal">
        <lane id=":gneJ145_1_0" index="0" speed="13.89" length="15.68" shape="77.24,-163.49 78.60,-159.85 80.04,-156.10 81.18,-152.30 81.65,-148.52"/>
    </edge>
    <edge id=":gneJ145_2" function="internal">
        <lane id=":gneJ145_2_0" index="0" speed="13.89" length="15.65" shape="74.04,-161.92 76.40,-158.77 78.88,-155.53 80.85,-152.13 81.65,-148.52"/>
    </edge>
    <edge id=":gneJ146_0" function="internal">
        <lane id=":gneJ146_0_0" index="0" speed="13.89" length="13.12" shape="75.24,-160.51 74.01,-157.25 72.85,-154.34 71.99,-151.37 71.65,-147.97"/>
    </edge>
    <edge id=":gneJ146_1" function="internal">
        <lane id=":gneJ146_1_0" index="0" speed="13.89" length="13.65" shape="71.65,-161.63 71.65,-147.97"/>
    </edge>
    <edge id=":gneJ146_2" function="internal">
        <lane id=":gneJ146_2_0" index="0" speed="13.89" length="13.63" shape="68.06,-161.04 69.29,-157.70 70.45,-154.60 71.31,-151.46 71.65,-147.97"/>
    </edge>
    <edge id=":gneJ147_0" function="internal">
        <lane id=":gneJ147_0_0" index="0" speed="13.89" length="15.10" shape="68.95,-160.46 66.64,-157.38 64.26,-154.30 62.40,-151.06 61.65,-147.52"/>
    </edge>
    <edge id=":gneJ147_1" function="internal">
        <lane id=":gneJ147_1_0" index="0" speed="13.89" length="15.15" shape="65.75,-162.03 64.44,-158.46 63.11,-154.87 62.07,-151.23 61.65,-147.52"/>
    </edge>
    <edge id=":gneJ147_2" function="internal">
        <lane id=":gneJ147_2_0" index="0" speed="13.89" length="13.58" shape="61.65,-161.09 61.65,-147.52"/>
    </edge>
    <edge id=":gneJ15_0" function="internal">
        <lane id=":gneJ15_0_0" index="0" speed="13.89" length="7.19" shape="226.89,44.56 228.69,46.22 230.28,47.40 231.66,48.11 232.85,48.35"/>
    </edge>
    <edge id=":gneJ15_1" function="internal">
        <lane id=":gneJ15_1_0" index="0" speed="13.89" length="7.53" shape="225.32,48.35 232.85,48.35"/>
    </edge>
    <edge id=":gneJ16_0" function="internal">
        <lane id=":gneJ16_0_0" index="0" speed="13.89" length="0.10" shape="-120.00,58.35 -120.00,58.35"/>
    </edge>
    <edge id=":gneJ17_0" function="internal">
        <lane id=":gneJ17_0_0" index="0" speed="13.89" length="0.10" shape="230.00,58.35 230.00,58.35"/>
    </edge>
    <edge id=":gneJ18_0" function="internal">
        <lane id=":gneJ18_0_0" index="0" speed="13.89" length="0.10" shape="-120.00,68.35 -120.00,68.35"/>
    </edge>
    <edge id=":gneJ19_0" function="internal">
        <lane id=":gneJ19_0_0" index="0" speed="13.89" length="0.10" shape="230.00,68.35 230.00,68.35"/>
    </edge>
    <edge id=":gneJ2_0" function="internal">
        <lane id=":gneJ2_0_0" index="0" speed="13.89" length="0.10" shape="61.65,-100.00 61.65,-100.00"/>
    </edge>
    <edge id=":gneJ20_0" function="internal">
        <lane id=":gneJ20_0_0" index="0" speed="13.89" length="0.10" shape="230.00,81.65 230.00,81.65"/>
    </edge>
    <edge id=":gneJ21_0" function="internal">
        <lane id=":gneJ21_0_0" index="0" speed="13.89" length="0.10" shape="-120.00,81.65 -120.00,81.65"/>
    </edge>
    <edge id=":gneJ22_0" function="internal">
        <lane id=":gneJ22_0_0" index="0" speed="13.89" length="0.10" shape="230.00,91.65 230.00,91.65"/>
    </edge>
    <edge id=":gneJ24_0" function="internal">
        <lane id=":gneJ24_0_0" index="0" speed="13.89" length="7.19" shape="232.85,101.65 231.66,101.89 230.28,102.60 228.69,103.78 226.89,105.44"/>
    </edge>
    <edge id=":gneJ24_1" function="internal">
        <lane id=":gneJ24_1_0" index="0" speed="13.89" length="7.53" shape="232.85,101.65 225.32,101.65"/>
    </edge>
    <edge id=":gneJ25_0" function="internal">
        <lane id=":gneJ25_0_0" index="0" speed="13.89" length="7.19" shape="-116.89,105.44 -118.69,103.78 -120.28,102.60 -121.66,101.89 -122.85,101.65"/>
    </edge>
    <edge id=":gneJ25_1" function="internal">
        <lane id=":gneJ25_1_0" index="0" speed="13.89" length="7.53" shape="-115.32,101.65 -122.85,101.65"/>
    </edge>
    <edge id=":gneJ28_0" function="internal">
        <lane id=":gneJ28_0_0" index="0" speed="13.89" length="7.53" shape="222.21,110.12 216.89,115.44"/>
    </edge>
    <edge id=":gneJ28_1" function="internal">
        <lane id=":gneJ28_1_0" index="0" speed="13.89" length="7.19" shape="222.21,110.12 221.21,110.79 219.73,111.27 217.76,111.55 215.32,111.65"/>
    </edge>
    <edge id=":gneJ29_0" function="internal">
        <lane id=":gneJ29_0_0" index="0" speed="13.89" length="7.53" shape="95.44,236.89 90.12,242.21"/>
    </edge>
    <edge id=":gneJ29_1" function="internal">
        <lane id=":gneJ29_1_0" index="0" speed="13.89" length="3.34" shape="91.65,235.32 91.55,237.76 91.43,238.65"/>
    </edge>
    <edge id=":gneJ29_2" function="internal">
        <lane id=":gneJ29_2_0" index="0" speed="13.89" length="3.86" shape="91.43,238.65 91.27,239.73 90.79,241.21 90.12,242.21"/>
    </edge>
    <edge id=":gneJ3_0" function="internal">
        <lane id=":gneJ3_0_0" index="0" speed="13.89" length="0.10" shape="61.65,250.00 61.65,250.00"/>
    </edge>
    <edge id=":gneJ30_0" function="internal">
        <lane id=":gneJ30_0_0" index="0" speed="13.89" length="7.53" shape="19.88,242.21 14.56,236.89"/>
    </edge>
    <edge id=":gneJ30_1" function="internal">
        <lane id=":gneJ30_1_0" index="0" speed="13.89" length="7.19" shape="19.88,242.21 19.21,241.21 18.73,239.73 18.45,237.76 18.35,235.32"/>
    </edge>
    <edge id=":gneJ31_0" function="internal">
        <lane id=":gneJ31_0_0" index="0" speed="13.89" length="7.53" shape="-106.89,115.44 -112.21,110.12"/>
    </edge>
    <edge id=":gneJ31_1" function="internal">
        <lane id=":gneJ31_1_0" index="0" speed="13.89" length="3.34" shape="-105.32,111.65 -107.76,111.55 -108.65,111.43"/>
    </edge>
    <edge id=":gneJ31_2" function="internal">
        <lane id=":gneJ31_2_0" index="0" speed="13.89" length="3.86" shape="-108.65,111.43 -109.73,111.27 -111.21,110.79 -112.21,110.12"/>
    </edge>
    <edge id=":gneJ34_0" function="internal">
        <lane id=":gneJ34_0_0" index="0" speed="13.89" length="7.53" shape="90.12,-92.21 95.44,-86.89"/>
    </edge>
    <edge id=":gneJ34_1" function="internal">
        <lane id=":gneJ34_1_0" index="0" speed="13.89" length="7.19" shape="90.12,-92.21 90.79,-91.21 91.27,-89.73 91.55,-87.76 91.65,-85.32"/>
    </edge>
    <edge id=":gneJ35_0" function="internal">
        <lane id=":gneJ35_0_0" index="0" speed="13.89" length="7.53" shape="216.89,34.56 222.21,39.88"/>
    </edge>
    <edge id=":gneJ35_1" function="internal">
        <lane id=":gneJ35_1_0" index="0" speed="13.89" length="3.34" shape="215.32,38.35 217.76,38.45 218.65,38.57"/>
    </edge>
    <edge id=":gneJ35_2" function="internal">
        <lane id=":gneJ35_2_0" index="0" speed="13.89" length="3.86" shape="218.65,38.57 219.73,38.73 221.21,39.21 222.21,39.88"/>
    </edge>
    <edge id=":gneJ36_0" function="internal">
        <lane id=":gneJ36_0_0" index="0" speed="13.89" length="7.53" shape="-112.21,39.88 -106.89,34.56"/>
    </edge>
    <edge id=":gneJ36_1" function="internal">
        <lane id=":gneJ36_1_0" index="0" speed="13.89" length="7.19" shape="-112.21,39.88 -111.21,39.21 -109.73,38.73 -107.76,38.45 -105.32,38.35"/>
    </edge>
    <edge id=":gneJ37_0" function="internal">
        <lane id=":gneJ37_0_0" index="0" speed="13.89" length="3.34" shape="18.35,-85.32 18.45,-87.76 18.57,-88.65"/>
    </edge>
    <edge id=":gneJ37_2" function="internal">
        <lane id=":gneJ37_2_0" index="0" speed="13.89" length="3.86" shape="18.57,-88.65 18.73,-89.73 19.21,-91.21 19.88,-92.21"/>
    </edge>
    <edge id=":gneJ37_1" function="internal">
        <lane id=":gneJ37_1_0" index="0" speed="13.89" length="7.53" shape="14.56,-86.89 19.88,-92.21"/>
    </edge>
    <edge id=":gneJ38_0" function="internal">
        <lane id=":gneJ38_0_0" index="0" speed="13.89" length="13.11" shape="768.52,48.35 781.63,48.35"/>
    </edge>
    <edge id=":gneJ38_1" function="internal">
        <lane id=":gneJ38_1_0" index="0" speed="13.89" length="15.68" shape="768.52,48.35 772.30,48.82 776.10,49.96 779.85,51.40 783.49,52.76"/>
    </edge>
    <edge id=":gneJ38_2" function="internal">
        <lane id=":gneJ38_2_0" index="0" speed="13.89" length="15.65" shape="768.52,48.35 772.13,49.15 775.53,51.12 778.77,53.60 781.92,55.96"/>
    </edge>
    <edge id=":gneJ39_0" function="internal">
        <lane id=":gneJ39_0_0" index="0" speed="13.89" length="12.62" shape="768.51,58.35 771.83,58.01 774.60,57.15 777.34,55.99 780.51,54.76"/>
    </edge>
    <edge id=":gneJ39_1" function="internal">
        <lane id=":gneJ39_1_0" index="0" speed="13.89" length="13.12" shape="768.51,58.35 781.63,58.35"/>
    </edge>
    <edge id=":gneJ39_2" function="internal">
        <lane id=":gneJ39_2_0" index="0" speed="13.89" length="13.12" shape="768.51,58.35 771.91,58.69 774.87,59.55 777.79,60.71 781.04,61.94"/>
    </edge>
    <edge id=":gneJ4_0" function="internal">
        <lane id=":gneJ4_0_0" index="0" speed="13.89" length="0.10" shape="71.65,-100.00 71.65,-100.00"/>
    </edge>
    <edge id=":gneJ40_0" function="internal">
        <lane id=":gneJ40_0_0" index="0" speed="13.89" length="15.10" shape="767.52,68.35 771.06,67.60 774.30,65.74 777.38,63.36 780.46,61.05"/>
    </edge>
    <edge id=":gneJ40_1" function="internal">
        <lane id=":gneJ40_1_0" index="0" speed="13.89" length="15.15" shape="767.52,68.35 771.23,67.93 774.87,66.89 778.46,65.56 782.03,64.25"/>
    </edge>
    <edge id=":gneJ40_2" function="internal">
        <lane id=":gneJ40_2_0" index="0" speed="13.89" length="13.58" shape="767.52,68.35 781.09,68.35"/>
    </edge>
    <edge id=":gneJ44_0" function="internal">
        <lane id=":gneJ44_0_0" index="0" speed="13.89" length="13.11" shape="-588.52,101.65 -601.63,101.65"/>
    </edge>
    <edge id=":gneJ44_1" function="internal">
        <lane id=":gneJ44_1_0" index="0" speed="13.89" length="15.68" shape="-588.52,101.65 -592.30,101.18 -596.10,100.04 -599.85,98.60 -603.49,97.24"/>
    </edge>
    <edge id=":gneJ44_2" function="internal">
        <lane id=":gneJ44_2_0" index="0" speed="13.89" length="15.65" shape="-588.52,101.65 -592.13,100.85 -595.53,98.88 -598.77,96.40 -601.92,94.04"/>
    </edge>
    <edge id=":gneJ46_0" function="internal">
        <lane id=":gneJ46_0_0" index="0" speed="13.89" length="12.62" shape="-588.51,91.65 -591.83,91.99 -594.60,92.85 -597.34,94.01 -600.51,95.24"/>
    </edge>
    <edge id=":gneJ46_1" function="internal">
        <lane id=":gneJ46_1_0" index="0" speed="13.89" length="13.12" shape="-588.51,91.65 -601.63,91.65"/>
    </edge>
    <edge id=":gneJ46_2" function="internal">
        <lane id=":gneJ46_2_0" index="0" speed="13.89" length="13.12" shape="-588.51,91.65 -591.91,91.31 -594.87,90.45 -597.79,89.29 -601.04,88.06"/>
    </edge>
    <edge id=":gneJ47_0" function="internal">
        <lane id=":gneJ47_0_0" index="0" speed="13.89" length="15.10" shape="-587.52,81.65 -591.06,82.40 -594.30,84.26 -597.38,86.64 -600.46,88.95"/>
    </edge>
    <edge id=":gneJ47_1" function="internal">
        <lane id=":gneJ47_1_0" index="0" speed="13.89" length="15.15" shape="-587.52,81.65 -591.23,82.07 -594.87,83.11 -598.46,84.44 -602.03,85.75"/>
    </edge>
    <edge id=":gneJ47_2" function="internal">
        <lane id=":gneJ47_2_0" index="0" speed="13.89" length="13.58" shape="-587.52,81.65 -601.09,81.65"/>
    </edge>
    <edge id=":gneJ5_0" function="internal">
        <lane id=":gneJ5_0_0" index="0" speed="13.89" length="0.10" shape="71.65,250.00 71.65,250.00"/>
    </edge>
    <edge id=":gneJ52_0" function="internal">
        <lane id=":gneJ52_0_0" index="0" speed="13.89" length="15.10" shape="-202.48,68.35 -198.94,67.60 -195.70,65.74 -192.62,63.36 -189.54,61.05"/>
    </edge>
    <edge id=":gneJ52_1" function="internal">
        <lane id=":gneJ52_1_0" index="0" speed="13.89" length="15.15" shape="-202.48,68.35 -198.77,67.93 -195.13,66.89 -191.54,65.56 -187.97,64.25"/>
    </edge>
    <edge id=":gneJ52_2" function="internal">
        <lane id=":gneJ52_2_0" index="0" speed="13.89" length="13.58" shape="-202.48,68.35 -188.91,68.35"/>
    </edge>
    <edge id=":gneJ54_0" function="internal">
        <lane id=":gneJ54_0_0" index="0" speed="13.89" length="12.62" shape="-201.49,58.35 -198.17,58.01 -195.40,57.15 -192.66,55.99 -189.49,54.76"/>
    </edge>
    <edge id=":gneJ54_1" function="internal">
        <lane id=":gneJ54_1_0" index="0" speed="13.89" length="13.12" shape="-201.49,58.35 -188.37,58.35"/>
    </edge>
    <edge id=":gneJ54_2" function="internal">
        <lane id=":gneJ54_2_0" index="0" speed="13.89" length="13.12" shape="-201.49,58.35 -198.09,58.69 -195.13,59.55 -192.21,60.71 -188.96,61.94"/>
    </edge>
    <edge id=":gneJ56_0" function="internal">
        <lane id=":gneJ56_0_0" index="0" speed="13.89" length="13.11" shape="-201.48,48.35 -188.37,48.35"/>
    </edge>
    <edge id=":gneJ56_1" function="internal">
        <lane id=":gneJ56_1_0" index="0" speed="13.89" length="15.68" shape="-201.48,48.35 -197.70,48.82 -193.90,49.96 -190.15,51.40 -186.51,52.76"/>
    </edge>
    <edge id=":gneJ56_2" function="internal">
        <lane id=":gneJ56_2_0" index="0" speed="13.89" length="15.65" shape="-201.48,48.35 -197.87,49.15 -194.47,51.12 -191.23,53.60 -188.08,55.96"/>
    </edge>
    <edge id=":gneJ58_0" function="internal">
        <lane id=":gneJ58_0_0" index="0" speed="13.89" length="15.10" shape="312.48,81.65 308.94,82.40 305.70,84.26 302.62,86.64 299.54,88.95"/>
    </edge>
    <edge id=":gneJ58_1" function="internal">
        <lane id=":gneJ58_1_0" index="0" speed="13.89" length="15.15" shape="312.48,81.65 308.77,82.07 305.13,83.11 301.54,84.44 297.97,85.75"/>
    </edge>
    <edge id=":gneJ58_2" function="internal">
        <lane id=":gneJ58_2_0" index="0" speed="13.89" length="13.58" shape="312.48,81.65 298.91,81.65"/>
    </edge>
    <edge id=":gneJ6_0" function="internal">
        <lane id=":gneJ6_0_0" index="0" speed="13.89" length="7.19" shape="81.65,-102.85 81.89,-101.66 82.60,-100.28 83.78,-98.69 85.44,-96.89"/>
    </edge>
    <edge id=":gneJ6_1" function="internal">
        <lane id=":gneJ6_1_0" index="0" speed="13.89" length="7.53" shape="81.65,-102.85 81.65,-95.32"/>
    </edge>
    <edge id=":gneJ60_0" function="internal">
        <lane id=":gneJ60_0_0" index="0" speed="13.89" length="12.62" shape="311.49,91.65 308.17,91.99 305.40,92.85 302.66,94.01 299.49,95.24"/>
    </edge>
    <edge id=":gneJ60_1" function="internal">
        <lane id=":gneJ60_1_0" index="0" speed="13.89" length="13.12" shape="311.49,91.65 298.37,91.65"/>
    </edge>
    <edge id=":gneJ60_2" function="internal">
        <lane id=":gneJ60_2_0" index="0" speed="13.89" length="13.12" shape="311.49,91.65 308.09,91.31 305.13,90.45 302.21,89.29 298.96,88.06"/>
    </edge>
    <edge id=":gneJ62_0" function="internal">
        <lane id=":gneJ62_0_0" index="0" speed="13.89" length="13.11" shape="311.48,101.65 298.37,101.65"/>
    </edge>
    <edge id=":gneJ62_1" function="internal">
        <lane id=":gneJ62_1_0" index="0" speed="13.89" length="15.68" shape="311.48,101.65 307.70,101.18 303.90,100.04 300.15,98.60 296.51,97.24"/>
    </edge>
    <edge id=":gneJ62_2" function="internal">
        <lane id=":gneJ62_2_0" index="0" speed="13.89" length="15.65" shape="311.48,101.65 307.87,100.85 304.47,98.88 301.23,96.40 298.08,94.04"/>
    </edge>
    <edge id=":gneJ63_0" function="internal">
        <lane id=":gneJ63_0_0" index="0" speed="13.89" length="13.11" shape="28.35,-538.52 28.35,-551.63"/>
    </edge>
    <edge id=":gneJ63_1" function="internal">