<?xml version="1.0" encoding="UTF-8"?>

<!-- generated on 16/05/2018 16:51:06 by Netedit Version 0.32.0
<?xml version="1.0" encoding="UTF-8"?>

<configuration xmlns:xsi="http://www.w3.org/2001/XMLSchema-instance" xsi:noNamespaceSchemaLocation="http://sumo.dlr.de/xsd/netconvertConfiguration.xsd">

    <input>
        <sumo-net-file value="C:\Users\Abel\Documents\School\Year%202\Project%202-2\MapXmls\MaasRoadOnly\MaasRoadOnly.net.xml"/>
    </input>

    <output>
        <output-file value="C:\Users\Abel\Documents\School\Year%202\Project%202-2\MapXmls\MaasRoadOnly\MaasRoadOnly.net.xml"/>
        <plain-output-prefix value="C:\Users\Abel\Documents\School\Year%202\Project%202-2\MapXmls\MaasRoadOnly\Maas"/>
    </output>

    <processing>
        <no-turnarounds value="true"/>
        <offset.disable-normalization value="true"/>
        <lefthand value="false"/>
        <junctions.corner-detail value="0"/>
        <rectangular-lane-cut value="false"/>
        <walkingareas value="false"/>
    </processing>

</configuration>
-->

<nodes version="0.27" xmlns:xsi="http://www.w3.org/2001/XMLSchema-instance" xsi:noNamespaceSchemaLocation="http://sumo.dlr.de/xsd/nodes_file.xsd">
    <location netOffset="-688042.56,-5635310.98" convBoundary="0.00,164.30,3132.15,2805.46" origBoundary="5.672027,50.838823,5.716686,50.863087" projParameter="+proj=utm +zone=31 +ellps=WGS84 +datum=WGS84 +units=m +no_defs"/>

    <node id="1013679429" x="1245.66" y="2320.15" type="priority"/>
    <node id="1157626235" x="1975.48" y="2409.23" type="priority"/>
    <node id="1157627276" x="2159.30" y="2458.67" type="dead_end"/>
    <node id="1186147988" x="2221.96" y="2470.79" type="priority"/>
    <node id="1186148047" x="2225.27" y="2488.66" type="priority"/>
    <node id="1226742286" x="1575.09" y="1735.62" type="priority"/>
    <node id="1232580150" x="477.78" y="1160.25" type="priority"/>
    <node id="1256687064" x="852.30" y="483.26" type="priority"/>
    <node id="1256908096" x="573.39" y="1138.57" type="right_before_left"/>
    <node id="1256908098" x="619.13" y="1155.56" type="right_before_left"/>
    <node id="1256908100" x="594.61" y="1075.19" type="right_before_left"/>
    <node id="1268979618" x="1805.53" y="528.58" type="priority"/>
    <node id="1268979622" x="1787.82" y="397.72" type="priority"/>
    <node id="1268979636" x="1777.05" y="502.81" type="priority"/>
    <node id="1271090679" x="2764.61" y="2346.64" type="priority"/>
    <node id="1282646917" x="2096.42" y="1386.35" type="priority"/>
    <node id="1282646921" x="2089.26" y="1395.70" type="priority"/>
    <node id="1282646924" x="2095.89" y="1428.54" type="priority"/>
    <node id="1283012126" x="1979.75" y="1501.55" type="priority"/>
    <node id="1408484179" x="1322.98" y="864.53" type="priority"/>
    <node id="1453710862" x="2283.54" y="394.51" type="priority"/>
    <node id="1480043666" x="1894.68" y="434.54" type="priority"/>
    <node id="1480212347" x="751.70" y="663.85" type="priority"/>
    <node id="1480212348" x="704.60" y="678.04" type="priority"/>
    <node id="1480212349" x="720.09" y="686.11" type="priority"/>
    <node id="1480212351" x="745.44" y="676.89" type="priority"/>
    <node id="1480212352" x="697.20" y="654.46" type="priority"/>
    <node id="1502770328" x="2432.40" y="2468.01" type="priority"/>
    <node id="1529320448" x="1006.07" y="1914.13" type="priority"/>
    <node id="1529320454" x="1287.45" y="2153.86" type="priority"/>
    <node id="1529320468" x="1247.35" y="2312.87" type="priority"/>
    <node id="1539915019" x="1829.43" y="568.33" type="priority"/>
    <node id="1546992741" x="1896.83" y="442.00" type="priority"/>
    <node id="1597718499" x="2509.72" y="1203.18" type="priority"/>
    <node id="1597718509" x="2515.08" y="1076.43" type="priority"/>
    <node id="1624286350" x="2266.39" y="323.04" type="priority"/>
    <node id="183948037" x="2253.60" y="402.99" type="priority"/>
    <node id="183957959" x="2177.17" y="841.02" type="priority"/>
    <node id="1867085994" x="162.73" y="1124.70" type="dead_end"/>
    <node id="1867085999" x="299.84" y="1166.52" type="dead_end"/>
    <node id="1924988801" x="678.11" y="1901.26" type="priority"/>
    <node id="1930511730" x="2962.24" y="2144.91" type="priority"/>
    <node id="1955174609" x="1504.47" y="1949.63" type="priority"/>
    <node id="1978314968" x="1572.14" y="1596.28" type="priority"/>
    <node id="2051664427" x="2444.71" y="335.21" type="priority"/>
    <node id="2145048813" x="2157.79" y="837.15" type="priority"/>
    <node id="2145055964" x="2183.27" y="846.09" type="priority"/>
    <node id="2238941111" x="1157.82" y="2552.06" type="priority"/>
    <node id="2238941129" x="1266.40" y="2243.26" type="priority"/>
    <node id="2284696708" x="2476.39" y="1614.60" type="priority"/>
    <node id="2339199840" x="2678.29" y="1888.06" type="priority"/>
    <node id="240519382" x="1268.46" y="360.49" type="priority"/>
    <node id="240523264" x="760.53" y="621.40" type="priority"/>
    <node id="240645225" x="1513.26" y="1016.56" type="priority"/>
    <node id="2406748812" x="2300.55" y="1027.81" type="priority"/>
    <node id="2437332558" x="1407.39" y="2162.64" type="priority"/>
    <node id="2526545231" x="2688.59" y="2450.89" type="priority"/>
    <node id="2607792449" x="1242.65" y="1248.21" type="priority"/>
    <node id="2612385568" x="2524.28" y="2138.18" type="priority"/>
    <node id="261742480" x="1714.35" y="503.51" type="priority"/>
    <node id="261742491" x="1712.28" y="454.59" type="priority"/>
    <node id="2617862431" x="1241.95" y="1260.16" type="priority"/>
    <node id="2809925464" x="2669.53" y="544.80" type="priority"/>
    <node id="2810467954" x="2571.69" y="2025.76" type="priority"/>
    <node id="2810749401" x="2649.57" y="1986.69" type="priority"/>
    <node id="2810749402" x="2653.50" y="1996.77" type="priority"/>
    <node id="2810749403" x="2577.20" y="2044.73" type="priority"/>
    <node id="2810749404" x="2568.66" y="2015.31" type="priority"/>
    <node id="2810749405" x="2667.68" y="1887.66" type="priority"/>
    <node id="2811155878" x="2516.65" y="1893.49" type="priority"/>
    <node id="2811155879" x="2506.69" y="1897.08" type="priority"/>
    <node id="2816675680" x="849.51" y="1126.98" type="priority"/>
    <node id="2819393673" x="518.22" y="1407.32" type="priority"/>
    <node id="2821299451" x="1638.78" y="803.08" type="priority"/>
    <node id="2821299455" x="1639.53" y="795.38" type="priority"/>
    <node id="2821754482" x="1618.24" y="1835.44" type="priority"/>
    <node id="2821754483" x="1564.42" y="1844.50" type="priority"/>
    <node id="2822814740" x="1299.44" y="1406.66" type="priority"/>
    <node id="2824864676" x="1286.36" y="1008.76" type="priority"/>
    <node id="2835661856" x="1984.39" y="959.67" type="priority"/>
    <node id="2864454768" x="991.12" y="1242.64" type="priority"/>
    <node id="293137431" x="1568.58" y="1600.92" type="priority"/>
    <node id="293137432" x="1571.96" y="1600.47" type="priority"/>
    <node id="293137435" x="1581.22" y="1711.12" type="priority"/>
    <node id="293865668" x="2197.05" y="1168.04" type="priority"/>
    <node id="293866708" x="2246.02" y="1030.91" type="priority"/>
    <node id="293873997" x="2213.43" y="438.87" type="priority"/>
    <node id="293877544" x="580.12" y="1462.63" type="priority"/>
    <node id="293877704" x="664.74" y="1546.46" type="priority"/>
    <node id="2939003366" x="595.24" y="2498.86" type="dead_end"/>
    <node id="2939003370" x="583.03" y="2495.26" type="dead_end"/>
    <node id="293905548" x="1333.43" y="378.34" type="priority"/>
    <node id="293905614" x="1283.74" y="393.10" type="priority"/>
    <node id="293905638" x="1304.66" y="374.64" type="priority"/>
    <node id="293906135" x="796.75" y="548.33" type="priority"/>
    <node id="293906376" x="784.03" y="563.01" type="priority"/>
    <node id="293924814" x="1996.58" y="2411.51" type="priority"/>
    <node id="293924950" x="2008.70" y="2383.10" type="priority"/>
    <node id="293924960" x="2201.51" y="2402.31" type="priority"/>
    <node id="293952399" x="2608.09" y="1101.89" type="priority"/>
    <node id="293952429" x="2507.04" y="1075.23" type="priority"/>
    <node id="293952786" x="2509.00" y="1050.37" type="priority"/>
    <node id="293953024" x="2690.99" y="1112.58" type="priority"/>
    <node id="293953094" x="2681.69" y="1106.04" type="priority"/>
    <node id="294032952" x="1324.01" y="1060.37" type="priority"/>
    <node id="294033394" x="1417.83" y="625.73" type="priority"/>
    <node id="294099954" x="2175.69" y="1164.89" type="priority"/>
    <node id="294099956" x="2221.73" y="1066.52" type="priority"/>
    <node id="294775780" x="1086.65" y="643.70" type="priority"/>
    <node id="294792090" x="2114.46" y="954.40" type="priority"/>
    <node id="294793577" x="1980.48" y="960.15" type="priority"/>
    <node id="294823090" x="2502.44" y="557.53" type="priority"/>
    <node id="294827070" x="2701.31" y="273.81" type="dead_end"/>
    <node id="294827437" x="2486.11" y="310.00" type="dead_end"/>
    <node id="294848010" x="1553.48" y="1716.50" type="priority"/>
    <node id="294854953" x="2057.54" y="1415.89" type="priority"/>
    <node id="294859970" x="2011.77" y="2248.09" type="priority"/>
    <node id="294900556" x="381.54" y="1163.81" type="priority"/>
    <node id="295002629" x="2435.90" y="1031.56" type="priority"/>
    <node id="295005296" x="1122.13" y="1062.92" type="priority"/>
    <node id="295005297" x="1109.57" y="1100.16" type="priority"/>
    <node id="295016878" x="534.68" y="916.63" type="priority"/>
    <node id="295016967" x="567.34" y="933.59" type="priority"/>
    <node id="295017024" x="542.35" y="902.93" type="right_before_left"/>
    <node id="295017078" x="574.28" y="921.41" type="priority"/>
    <node id="295029023" x="1286.99" y="1845.63" type="priority"/>
    <node id="295029028" x="1548.61" y="1813.26" type="priority"/>
    <node id="295034684" x="1216.39" y="367.31" type="priority"/>
    <node id="295065201" x="492.62" y="1176.93" type="priority"/>
    <node id="295065947" x="703.88" y="1034.14" type="priority"/>
    <node id="295065948" x="712.75" y="996.60" type="priority"/>
    <node id="295066861" x="1568.49" y="1695.13" type="priority"/>
    <node id="295067218" x="1526.52" y="1737.59" type="priority"/>
    <node id="295067310" x="1526.34" y="1726.12" type="priority"/>
    <node id="295138925" x="1222.46" y="2193.49" type="priority"/>
    <node id="295159743" x="1679.99" y="1067.46" type="priority"/>
    <node id="295160110" x="1667.59" y="1065.78" type="right_before_left"/>
    <node id="295207937" x="2723.83" y="2570.90" type="dead_end"/>
    <node id="295208233" x="2583.99" y="2256.36" type="priority"/>
    <node id="295208244" x="2576.77" y="2259.38" type="priority"/>
    <node id="295208365" x="2641.73" y="2385.27" type="priority"/>
    <node id="295208410" x="2646.55" y="2396.21" type="priority"/>
    <node id="295211009" x="1004.76" y="861.69" type="right_before_left"/>
    <node id="295347308" x="2649.65" y="1105.54" type="priority"/>
    <node id="295347409" x="2688.72" y="1118.38" type="priority"/>
    <node id="295350061" x="2224.25" y="1060.25" type="priority"/>
    <node id="295350062" x="2228.89" y="1023.31" type="priority"/>
    <node id="295350552" x="2245.45" y="1013.14" type="priority"/>
    <node id="295688455" x="1578.70" y="1521.97" type="right_before_left"/>
    <node id="295835472" x="1385.52" y="1503.75" type="priority"/>
    <node id="295929074" x="2113.98" y="423.37" type="priority"/>
    <node id="295929252" x="2199.40" y="436.65" type="priority"/>
    <node id="297507918" x="2081.44" y="1404.98" type="priority"/>
    <node id="297587819" x="1569.50" y="1735.42" type="priority"/>
    <node id="297736924" x="1829.06" y="1278.67" type="priority"/>
    <node id="298458761" x="1171.02" y="1464.75" type="priority"/>
    <node id="298458822" x="1258.72" y="1406.46" type="priority"/>
    <node id="298847953" x="1708.41" y="471.21" type="priority"/>
    <node id="3059695231" x="2599.42" y="530.84" type="priority"/>
    <node id="3059695232" x="2631.07" y="533.91" type="priority"/>
    <node id="3059698733" x="2608.46" y="533.07" type="priority"/>
    <node id="3059698734" x="2640.41" y="536.56" type="priority"/>
    <node id="3059698735" x="2660.87" y="542.33" type="priority"/>
    <node id="307110497" x="2238.06" y="442.76" type="priority"/>
    <node id="3089353221" x="986.35" y="426.93" type="priority"/>
    <node id="31011812" x="1534.10" y="1913.13" type="priority"/>
    <node id="31012528" x="1613.12" y="1221.64" type="priority"/>
    <node id="3276809841" x="2123.93" y="266.18" type="priority"/>
    <node id="3389800326" x="1991.12" y="2540.98" type="dead_end"/>
    <node id="3389800329" x="2131.36" y="2524.29" type="dead_end"/>
    <node id="3389800333" x="1993.83" y="2473.05" type="priority"/>
    <node id="3389800342" x="586.11" y="2010.97" type="priority"/>
    <node id="3389800347" x="437.91" y="1913.42" type="priority"/>
    <node id="3389800351" x="591.93" y="2000.07" type="priority"/>
    <node id="3389800353" x="783.46" y="2174.24" type="priority"/>
    <node id="3389800356" x="790.66" y="2165.19" type="priority"/>
    <node id="3389800362" x="771.90" y="2166.89" type="priority"/>
    <node id="3389800363" x="779.96" y="2158.07" type="priority"/>
    <node id="3408694914" x="762.81" y="2102.08" type="priority"/>
    <node id="3503039346" x="343.12" y="1906.41" type="priority"/>
    <node id="3512428674" x="551.27" y="585.18" type="priority"/>
    <node id="3526299697" x="1543.72" y="1902.42" type="priority"/>
    <node id="3526299698" x="1549.04" y="1891.12" type="priority"/>
    <node id="353016052" x="2758.43" y="2337.89" type="priority"/>
    <node id="353261686" x="2251.73" y="409.59" type="priority"/>
    <node id="353262050" x="2240.04" y="385.07" type="priority"/>
    <node id="3542013577" x="1300.41" y="1008.86" type="priority"/>
    <node id="3542013579" x="1299.66" y="1002.98" type="priority"/>
    <node id="354531800" x="1241.99" y="2336.84" type="priority"/>
    <node id="359968024" x="2161.28" y="882.30" type="priority"/>
    <node id="359969685" x="2165.68" y="838.69" type="priority"/>
    <node id="360677329" x="1422.36" y="612.93" type="priority"/>
    <node id="360683107" x="504.78" y="1193.04" type="priority"/>
    <node id="3633064476" x="1786.49" y="456.97" type="priority"/>
    <node id="369257509" x="1840.87" y="1513.49" type="priority"/>
    <node id="369313144" x="2140.67" y="1292.57" type="priority"/>
    <node id="371185818" x="1116.02" y="678.29" type="priority"/>
    <node id="371186333" x="1179.72" y="807.87" type="priority"/>
    <node id="3798511346" x="1497.18" y="426.17" type="priority"/>
    <node id="3798511349" x="1478.07" y="430.33" type="priority"/>
    <node id="3804362746" x="577.80" y="521.77" type="priority"/>
    <node id="3804363375" x="578.26" y="592.37" type="priority"/>
    <node id="3804363395" x="676.27" y="736.54" type="priority"/>
    <node id="3804363398" x="832.19" y="522.85" type="priority"/>
    <node id="392789717" x="1179.45" y="718.11" type="priority"/>
    <node id="41960514" x="2259.70" y="164.30" type="dead_end"/>
    <node id="41960534" x="2275.18" y="166.61" type="dead_end"/>
    <node id="41960981" x="1760.92" y="182.43" type="dead_end"/>
    <node id="41960992" x="1748.18" y="184.14" type="dead_end"/>
    <node id="41961146" x="1666.39" y="197.16" type="priority"/>
    <node id="41961152" x="1749.74" y="195.77" type="priority"/>
    <node id="41961369" x="1580.55" y="210.47" type="priority"/>
    <node id="41961482" x="2549.38" y="251.39" type="dead_end"/>
    <node id="41961722" x="2786.27" y="279.34" type="dead_end"/>
    <node id="41961776" x="2416.47" y="274.43" type="priority"/>
    <node id="41962275" x="1438.26" y="275.38" type="priority"/>
    <node id="41962494" x="1432.57" y="288.30" type="priority"/>
    <node id="41962502" x="2267.67" y="313.79" type="priority"/>
    <node id="41962573" x="2746.99" y="345.56" type="priority"/>
    <node id="41962575" x="2778.83" y="346.61" type="priority"/>
    <node id="41962624" x="2699.35" y="342.95" type="priority"/>
    <node id="41962674" x="2817.61" y="350.85" type="priority"/>
    <node id="41962792" x="1540.43" y="307.23" type="priority"/>
    <node id="41962795" x="2631.70" y="348.68" type="priority"/>
    <node id="41962873" x="2869.25" y="361.43" type="priority"/>
    <node id="41962905" x="2248.14" y="334.77" type="priority"/>
    <node id="41962907" x="2557.67" y="354.40" type="priority"/>
    <node id="41962917" x="575.52" y="283.36" type="priority"/>
    <node id="41963100" x="1798.66" y="338.92" type="priority"/>
    <node id="41963107" x="1780.52" y="339.62" type="priority"/>
    <node id="41963115" x="1766.91" y="339.99" type="priority"/>
    <node id="41963257" x="2340.37" y="369.52" type="priority"/>
    <node id="41963360" x="2343.29" y="378.11" type="priority"/>
    <node id="41963366" x="3017.11" y="407.40" type="priority"/>
    <node id="41963374" x="1242.12" y="333.19" type="priority"/>
    <node id="41963381" x="1808.37" y="361.98" type="priority"/>
    <node id="41963504" x="586.78" y="325.55" type="priority"/>
    <node id="41963509" x="2268.20" y="389.37" type="priority"/>
    <node id="41963537" x="2250.29" y="391.58" type="priority"/>
    <node id="41963569" x="2222.39" y="392.31" type="priority"/>
    <node id="41963589" x="1260.56" y="359.49" type="priority"/>
    <node id="41963593" x="2482.84" y="405.88" type="priority"/>
    <node id="41963666" x="1159.72" y="359.13" type="priority"/>
    <node id="41963682" x="1331.78" y="368.28" type="priority"/>
    <node id="41963703" x="1268.33" y="370.71" type="priority"/>
    <node id="41963705" x="2846.55" y="422.94" type="priority"/>
    <node id="41963714" x="2547.04" y="415.66" type="priority"/>
    <node id="41963722" x="1407.96" y="373.30" type="priority"/>
    <node id="41963773" x="2219.82" y="404.77" type="priority"/>
    <node id="41963942" x="2232.79" y="418.31" type="priority"/>
    <node id="41963947" x="2986.00" y="442.87" type="priority"/>
    <node id="41963962" x="2872.68" y="440.60" type="priority"/>
    <node id="41963977" x="1773.78" y="402.58" type="priority"/>
    <node id="41963978" x="2745.57" y="438.10" type="right_before_left"/>
    <node id="41963991" x="592.82" y="361.61" type="priority"/>
    <node id="41964005" x="2373.23" y="451.88" type="right_before_left"/>
    <node id="41964006" x="2644.31" y="436.85" type="priority"/>
    <node id="41964056" x="3051.27" y="456.26" type="priority"/>
    <node id="41964127" x="2594.27" y="440.40" type="right_before_left"/>
    <node id="41964141" x="1502.35" y="401.20" type="priority"/>
    <node id="41964291" x="1476.63" y="409.29" type="priority"/>
    <node id="41964322" x="406.94" y="360.24" type="right_before_left"/>
    <node id="41964363" x="1797.39" y="437.24" type="priority"/>
    <node id="41964372" x="528.90" y="381.37" type="right_before_left"/>
    <node id="41964467" x="1782.27" y="440.91" type="priority"/>
    <node id="41964493" x="454.23" y="390.63" type="right_before_left"/>
    <node id="41964559" x="539.54" y="396.69" type="right_before_left"/>
    <node id="41964588" x="1490.05" y="435.63" type="priority"/>
    <node id="41964675" x="2946.29" y="490.06" type="priority"/>
    <node id="41964735" x="1627.63" y="451.84" type="priority"/>
    <node id="41964822" x="2835.50" y="499.16" type="priority"/>
    <node id="41964952" x="2484.33" y="497.60" type="priority"/>
    <node id="41965034" x="1709.12" y="481.11" type="priority"/>
    <node id="41965079" x="1809.10" y="480.75" type="priority"/>
    <node id="41965112" x="1618.09" y="486.12" type="priority"/>
    <node id="41965142" x="569.73" y="444.83" type="right_before_left"/>
    <node id="41965148" x="883.54" y="459.55" type="dead_end"/>
    <node id="41965157" x="2812.41" y="528.06" type="right_before_left"/>
    <node id="41965210" x="1813.63" y="498.24" type="priority"/>
    <node id="41965219" x="2682.04" y="540.67" type="priority"/>
    <node id="41965254" x="1798.61" y="500.71" type="priority"/>
    <node id="41965319" x="2890.91" y="539.23" type="right_before_left"/>
    <node id="41965348" x="595.64" y="458.39" type="priority"/>
    <node id="41965352" x="2402.32" y="523.54" type="priority"/>
    <node id="41965381" x="2742.03" y="542.64" type="priority"/>
    <node id="41965391" x="1726.84" y="504.63" type="priority"/>
    <node id="41965405" x="2093.06" y="518.89" type="priority"/>
    <node id="41965422" x="875.97" y="475.63" type="priority"/>
    <node id="41965483" x="2620.74" y="530.99" type="right_before_left"/>
    <node id="41965504" x="2651.62" y="539.74" type="right_before_left"/>
    <node id="41965509" x="2679.04" y="547.17" type="priority"/>
    <node id="41965541" x="881.36" y="482.51" type="priority"/>
    <node id="41965556" x="854.89" y="481.18" type="priority"/>
    <node id="41965575" x="1357.78" y="503.18" type="priority"/>
    <node id="41965636" x="2552.58" y="543.07" type="priority"/>
    <node id="41965647" x="593.72" y="484.30" type="priority"/>
    <node id="41965694" x="2673.93" y="566.23" type="right_before_left"/>
    <node id="41965700" x="2749.41" y="570.62" type="priority"/>
    <node id="41965724" x="866.80" y="503.85" type="priority"/>
    <node id="41965725" x="2127.42" y="554.91" type="priority"/>
    <node id="41965742" x="1454.41" y="533.41" type="priority"/>
    <node id="41965805" x="2215.85" y="567.76" type="priority"/>
    <node id="41965820" x="2227.61" y="570.16" type="priority"/>
    <node id="41965884" x="354.85" y="505.83" type="priority"/>
    <node id="41966030" x="2361.94" y="594.02" type="right_before_left"/>
    <node id="41966091" x="1816.09" y="571.08" type="priority"/>
    <node id="41966199" x="1581.75" y="582.71" type="priority"/>
    <node id="41966202" x="2537.23" y="611.97" type="priority"/>
    <node id="41966218" x="2441.46" y="609.58" type="right_before_left"/>
    <node id="41966330" x="807.95" y="561.09" type="priority"/>
    <node id="41966369" x="2760.82" y="636.21" type="right_before_left"/>
    <node id="41966399" x="2542.29" y="635.28" type="priority"/>
    <node id="41966411" x="491.10" y="562.74" type="priority"/>
    <node id="41966438" x="894.09" y="577.14" type="priority"/>
    <node id="41966449" x="1425.90" y="604.06" type="priority"/>
    <node id="41966548" x="2589.01" y="644.95" type="priority"/>
    <node id="41966620" x="537.40" y="579.32" type="priority"/>
    <node id="41966621" x="1684.10" y="622.33" type="priority"/>
    <node id="41966671" x="325.10" y="572.87" type="dead_end"/>
    <node id="41966672" x="2111.59" y="642.08" type="right_before_left"/>
    <node id="41966698" x="2640.44" y="661.40" type="right_before_left"/>
    <node id="41966792" x="2487.25" y="658.33" type="right_before_left"/>
    <node id="41966848" x="2199.31" y="657.87" type="priority"/>
    <node id="41966857" x="2211.46" y="659.65" type="priority"/>
    <node id="41966962" x="1266.90" y="622.29" type="priority"/>
    <node id="41967010" x="2294.10" y="674.28" type="priority"/>
    <node id="41967102" x="754.53" y="616.66" type="priority"/>
    <node id="41967115" x="1394.86" y="648.40" type="priority"/>
    <node id="41967122" x="2665.34" y="693.49" type="right_before_left"/>
    <node id="41967180" x="2396.80" y="692.37" type="right_before_left"/>
    <node id="41967247" x="437.67" y="617.57" type="right_before_left"/>
    <node id="41967261" x="1420.11" y="661.99" type="priority"/>
    <node id="41967331" x="300.75" y="619.58" type="priority"/>
    <node id="41967334" x="672.65" y="630.99" type="priority"/>
    <node id="41967412" x="545.08" y="634.70" type="right_before_left"/>
    <node id="41967423" x="702.86" y="641.69" type="priority"/>
    <node id="41967464" x="2570.56" y="714.69" type="priority"/>
    <node id="41967623" x="2902.76" y="739.35" type="priority"/>
    <node id="41967672" x="1120.26" y="679.55" type="priority"/>
    <node id="41967681" x="777.12" y="675.49" type="priority"/>
    <node id="41967710" x="1613.87" y="695.81" type="priority"/>
    <node id="41967712" x="2411.05" y="726.26" type="right_before_left"/>
    <node id="41967716" x="2564.40" y="738.72" type="right_before_left"/>
    <node id="41967792" x="409.04" y="661.70" type="priority"/>
    <node id="41967807" x="1106.38" y="686.60" type="priority"/>
    <node id="41967817" x="776.62" y="683.67" type="priority"/>
    <node id="41967828" x="782.60" y="683.58" type="priority"/>
    <node id="41967829" x="2095.35" y="729.84" type="right_before_left"/>
    <node id="41967841" x="1454.27" y="708.91" type="priority"/>
    <node id="41967891" x="548.76" y="680.72" type="right_before_left"/>
    <node id="41967892" x="1237.02" y="710.86" type="priority"/>
    <node id="41967894" x="2918.63" y="771.16" type="priority"/>
    <node id="41967896" x="2183.03" y="746.15" type="priority"/>
    <node id="41967905" x="2195.54" y="748.28" type="priority"/>
    <node id="41967926" x="706.65" y="703.87" type="priority"/>
    <node id="41967932" x="697.51" y="698.97" type="priority"/>
    <node id="41967946" x="2873.07" y="779.79" type="priority"/>
    <node id="41967957" x="836.53" y="706.78" type="priority"/>
    <node id="41967958" x="1228.88" y="721.33" type="priority"/>
    <node id="41967985" x="2276.78" y="763.63" type="priority"/>
    <node id="41968003" x="861.92" y="717.34" type="priority"/>
    <node id="41968013" x="1317.05" y="737.43" type="priority"/>
    <node id="41968099" x="2435.76" y="793.68" type="right_before_left"/>
    <node id="41968133" x="2550.10" y="792.73" type="right_before_left"/>
    <node id="41968139" x="388.93" y="715.96" type="priority"/>
    <node id="41968141" x="1308.09" y="750.02" type="priority"/>
    <node id="41968256" x="552.53" y="737.02" type="right_before_left"/>
    <node id="41968313" x="538.30" y="735.16" type="right_before_left"/>
    <node id="41968442" x="1660.99" y="789.96" type="priority"/>
    <node id="41968449" x="1495.52" y="784.40" type="priority"/>
    <node id="41968450" x="1639.99" y="788.73" type="priority"/>
    <node id="41968462" x="443.70" y="746.48" type="right_before_left"/>
    <node id="41968494" x="2720.09" y="831.84" type="priority"/>
    <node id="41968513" x="983.51" y="770.77" type="priority"/>
    <node id="41968604" x="2933.39" y="846.97" type="priority"/>
    <node id="41968612" x="1354.47" y="791.55" type="priority"/>
    <node id="41968631" x="2703.54" y="840.08" type="priority"/>
    <node id="41968642" x="754.23" y="767.31" type="right_before_left"/>
    <node id="41968739" x="2078.45" y="821.89" type="priority"/>
    <node id="41968784" x="1027.14" y="797.64" type="right_before_left"/>
    <node id="41968786" x="1351.18" y="798.67" type="priority"/>
    <node id="41968849" x="2455.91" y="849.81" type="priority"/>
    <node id="41968859" x="819.48" y="783.67" type="priority"/>
    <node id="41968891" x="1359.10" y="812.47" type="priority"/>
    <node id="41968900" x="510.50" y="783.73" type="right_before_left"/>
    <node id="41969029" x="420.21" y="788.00" type="right_before_left"/>
    <node id="41969122" x="1046.97" y="821.48" type="priority"/>
    <node id="41969157" x="2334.81" y="870.22" type="priority"/>
    <node id="41969188" x="207.75" y="791.44" type="priority"/>
    <node id="41969315" x="1486.81" y="851.14" type="priority"/>
    <node id="41969329" x="2731.73" y="897.37" type="priority"/>
    <node id="41969361" x="356.47" y="809.70" type="priority"/>
    <node id="41969383" x="2174.59" y="880.34" type="priority"/>
    <node id="41969400" x="2446.93" y="891.12" type="priority"/>
    <node id="41969439" x="1151.22" y="845.59" type="priority"/>
    <node id="41969503" x="2479.42" y="901.59" type="priority"/>
    <node id="41969511" x="486.66" y="824.53" type="right_before_left"/>
    <node id="41969517" x="1619.87" y="867.26" type="priority"/>
    <node id="41969641" x="395.64" y="831.44" type="right_before_left"/>
    <node id="41969661" x="1471.88" y="872.94" type="priority"/>
    <node id="41969675" x="2510.20" y="914.96" type="priority"/>
    <node id="41969694" x="2586.00" y="916.59" type="priority"/>
    <node id="41969738" x="942.16" y="859.86" type="right_before_left"/>
    <node id="41969900" x="1129.84" y="881.90" type="priority"/>
    <node id="41969945" x="1133.26" y="883.46" type="priority"/>
    <node id="41969963" x="990.93" y="882.02" type="priority"/>
    <node id="41969992" x="1152.73" y="889.07" type="priority"/>
    <node id="41970039" x="2551.91" y="941.36" type="priority"/>
    <node id="41970048" x="461.48" y="867.61" type="right_before_left"/>
    <node id="41970060" x="173.37" y="855.36" type="priority"/>
    <node id="41970083" x="560.12" y="871.71" type="priority"/>
    <node id="41970093" x="2832.62" y="955.68" type="right_before_left"/>
    <node id="41970113" x="1342.02" y="907.72" type="priority"/>
    <node id="41970163" x="333.10" y="870.32" type="priority"/>
    <node id="41970193" x="2862.60" y="964.57" type="priority"/>
    <node id="41970209" x="583.83" y="903.53" type="priority"/>
    <node id="41970210" x="2747.79" y="962.58" type="priority"/>
    <node id="41970339" x="1443.71" y="934.47" type="priority"/>
    <node id="41970374" x="538.30" y="910.32" type="right_before_left"/>
    <node id="41970389" x="2751.09" y="993.27" type="priority"/>
    <node id="41970418" x="1980.83" y="968.27" type="priority"/>
    <node id="41970443" x="1321.02" y="945.35" type="priority"/>
    <node id="41970466" x="2485.98" y="997.47" type="priority"/>
    <node id="41970523" x="583.40" y="926.69" type="priority"/>
    <node id="41970569" x="1077.03" y="945.61" type="priority"/>
    <node id="41970572" x="1610.06" y="969.03" type="priority"/>
    <node id="41970573" x="1622.54" y="969.51" type="priority"/>