<?xml version="1.0" encoding="UTF-8"?>

<!-- generated on 16/05/2018 16:51:06 by Netedit Version 0.32.0
<?xml version="1.0" encoding="UTF-8"?>

<configuration xmlns:xsi="http://www.w3.org/2001/XMLSchema-instance" xsi:noNamespaceSchemaLocation="http://sumo.dlr.de/xsd/netconvertConfiguration.xsd">

    <input>
        <sumo-net-file value="C:\Users\Abel\Documents\School\Year%202\Project%202-2\MapXmls\MaasRoadOnly\MaasRoadOnly.net.xml"/>
    </input>

    <output>
        <output-file value="C:\Users\Abel\Documents\School\Year%202\Project%202-2\MapXmls\MaasRoadOnly\MaasRoadOnly.net.xml"/>
        <plain-output-prefix value="C:\Users\Abel\Documents\School\Year%202\Project%202-2\MapXmls\MaasRoadOnly\Maas"/>
    </output>

    <processing>
        <no-turnarounds value="true"/>
        <offset.disable-normalization value="true"/>
        <lefthand value="false"/>
        <junctions.corner-detail value="0"/>
        <rectangular-lane-cut value="false"/>
        <walkingareas value="false"/>
    </processing>

</configuration>
-->

<connections version="0.27" xmlns:xsi="http://www.w3.org/2001/XMLSchema-instance" xsi:noNamespaceSchemaLocation="http://sumo.dlr.de/xsd/connections_file.xsd">
    <connection from="-105358190" to="-105358233" fromLane="0" toLane="0"/>
    <connection from="-105358190" to="105358190" fromLane="0" toLane="0"/>

    <connection from="-105358233" to="-38839728" fromLane="0" toLane="0"/>
    <connection from="-105358233" to="7125971" fromLane="0" toLane="0"/>
    <connection from="-105358233" to="105358233" fromLane="0" toLane="0"/>

    <connection from="-106614342" to="7126118" fromLane="0" toLane="0"/>
    <connection from="-106614342" to="106614342" fromLane="0" toLane="0"/>

    <connection from="-106614343" to="-106614342" fromLane="0" toLane="0"/>
    <connection from="-106614343" to="106614343" fromLane="0" toLane="0"/>

    <connection from="-109889825" to="7127243#1" fromLane="0" toLane="0"/>
    <connection from="-109889825" to="109889825" fromLane="0" toLane="0"/>

    <connection from="-112313134" to="45767012" fromLane="0" toLane="0"/>
    <connection from="-112313134" to="112313134" fromLane="0" toLane="0"/>

    <connection from="-112999350#0" to="-7126017" fromLane="0" toLane="0"/>
    <connection from="-112999350#0" to="112999350#0" fromLane="0" toLane="0"/>

    <connection from="-112999350#1" to="-7125995" fromLane="0" toLane="0"/>
    <connection from="-112999350#1" to="-112999350#0" fromLane="0" toLane="0"/>
    <connection from="-112999350#1" to="112999350#1" fromLane="0" toLane="0"/>

    <connection from="-112999350#2" to="-7126006#1" fromLane="0" toLane="0"/>
    <connection from="-112999350#2" to="-112999350#1" fromLane="0" toLane="0"/>
    <connection from="-112999350#2" to="112999350#2" fromLane="0" toLane="0"/>

    <connection from="-112999350#3" to="-112999350#2" fromLane="0" toLane="0"/>
    <connection from="-112999350#3" to="7126031" fromLane="0" toLane="0"/>
    <connection from="-112999350#3" to="112999350#3" fromLane="0" toLane="0"/>

    <connection from="-112999354#0" to="-112999350#3" fromLane="0" toLane="0"/>
    <connection from="-112999354#0" to="112999354#0" fromLane="0" toLane="0"/>

    <connection from="-112999354#1" to="-7126159#1" fromLane="0" toLane="0"/>
    <connection from="-112999354#1" to="-112999354#0" fromLane="0" toLane="0"/>
    <connection from="-112999354#1" to="112999354#1" fromLane="0" toLane="0"/>

    <connection from="-112999354#2" to="-112999354#1" fromLane="0" toLane="0"/>
    <connection from="-112999354#2" to="-7126165" fromLane="0" toLane="0"/>
    <connection from="-112999354#2" to="112999354#2" fromLane="0" toLane="0"/>

    <connection from="-113010357#0" to="113010358" fromLane="0" toLane="0"/>
    <connection from="-113010357#0" to="113010357#0" fromLane="0" toLane="0"/>

    <connection from="-113010357#1" to="-113010357#0" fromLane="0" toLane="0"/>
    <connection from="-113010357#1" to="-7126064" fromLane="0" toLane="0"/>
    <connection from="-113010357#1" to="113010357#1" fromLane="0" toLane="0"/>

    <connection from="-113010358" to="113010357#0" fromLane="0" toLane="0"/>
    <connection from="-113010358" to="113010358" fromLane="0" toLane="0"/>

    <connection from="-116121397" to="-7126437" fromLane="0" toLane="0"/>
    <connection from="-116121397" to="116121397" fromLane="0" toLane="0"/>

    <connection from="-131357942" to="217159931#1" fromLane="0" toLane="0"/>
    <connection from="-131357942" to="131357942" fromLane="0" toLane="0"/>

    <connection from="-134440571#0" to="548213905" fromLane="0" toLane="0"/>
    <connection from="-134440571#0" to="7127691" fromLane="0" toLane="0"/>
    <connection from="-134440571#0" to="134440571#0" fromLane="0" toLane="0"/>

    <connection from="-134440571#1" to="549419567" fromLane="0" toLane="0"/>
    <connection from="-134440571#1" to="-134440571#0" fromLane="0" toLane="0"/>
    <connection from="-134440571#1" to="134440571#1" fromLane="0" toLane="0"/>

    <connection from="-135737262" to="135737262" fromLane="0" toLane="0"/>

    <connection from="-139513058" to="-7126493" fromLane="0" toLane="0"/>
    <connection from="-139513058" to="139513058" fromLane="0" toLane="0"/>

    <connection from="-139513071" to="-547957318" fromLane="0" toLane="0"/>
    <connection from="-139513071" to="139513071" fromLane="0" toLane="0"/>

    <connection from="-144011480#0" to="-7125420" fromLane="0" toLane="0"/>
    <connection from="-144011480#0" to="7125339#0" fromLane="0" toLane="0"/>
    <connection from="-144011480#0" to="144011480#0" fromLane="0" toLane="0"/>

    <connection from="-144011480#1" to="-144011480#0" fromLane="0" toLane="0"/>
    <connection from="-144011480#1" to="7125114" fromLane="0" toLane="0"/>
    <connection from="-144011480#1" to="144011480#1" fromLane="0" toLane="0"/>

    <connection from="-144011482" to="-70032446" fromLane="0" toLane="0"/>
    <connection from="-144011482" to="-276517379#1" fromLane="0" toLane="0"/>
    <connection from="-144011482" to="144011482" fromLane="0" toLane="0"/>

    <connection from="-144011484#0" to="-7126188#1" fromLane="0" toLane="0"/>
    <connection from="-144011484#0" to="7126060#0" fromLane="0" toLane="0"/>
    <connection from="-144011484#0" to="144011484#0" fromLane="0" toLane="0"/>

    <connection from="-144011484#1" to="-144011484#0" fromLane="0" toLane="0"/>
    <connection from="-144011484#1" to="7125980" fromLane="0" toLane="0"/>
    <connection from="-144011484#1" to="144011484#1" fromLane="0" toLane="0"/>

    <connection from="-144011485" to="7126315" fromLane="0" toLane="0"/>
    <connection from="-144011485" to="144011485" fromLane="0" toLane="0"/>

    <connection from="-144011490" to="7124780" fromLane="0" toLane="0"/>
    <connection from="-144011490" to="-7125357" fromLane="0" toLane="0"/>
    <connection from="-144011490" to="144011490" fromLane="0" toLane="0"/>

    <connection from="-144552860" to="7126043" fromLane="0" toLane="0"/>
    <connection from="-144552860" to="-7126200#1" fromLane="0" toLane="0"/>
    <connection from="-144552860" to="-7126200#1" fromLane="1" toLane="1"/>
    <connection from="-144552860" to="144552860" fromLane="1" toLane="1"/>

    <connection from="-144554882#0" to="-7125371#1" fromLane="0" toLane="0"/>
    <connection from="-144554882#0" to="-7125289#2" fromLane="0" toLane="0"/>
    <connection from="-144554882#0" to="144554882#0" fromLane="0" toLane="0"/>

    <connection from="-144554882#1" to="-7125290" fromLane="0" toLane="0"/>
    <connection from="-144554882#1" to="-144554882#0" fromLane="0" toLane="0"/>
    <connection from="-144554882#1" to="144554882#1" fromLane="0" toLane="0"/>

    <connection from="-144554882#2" to="7125116" fromLane="0" toLane="0"/>
    <connection from="-144554882#2" to="-144554882#1" fromLane="0" toLane="0"/>
    <connection from="-144554882#2" to="144554882#2" fromLane="0" toLane="0"/>

    <connection from="-144554886" to="7126018#0" fromLane="0" toLane="0"/>
    <connection from="-144554886" to="-7125370" fromLane="0" toLane="0"/>
    <connection from="-144554886" to="144554886" fromLane="0" toLane="0"/>

    <connection from="-146484794" to="146489171" fromLane="0" toLane="0"/>
    <connection from="-146484794" to="-7125971" fromLane="0" toLane="0"/>

    <connection from="-161345568" to="-7127004" fromLane="0" toLane="0"/>
    <connection from="-161345568" to="-7127004" fromLane="1" toLane="1"/>
    <connection from="-161345568" to="161345568" fromLane="1" toLane="1"/>

    <connection from="-163197741#0" to="-72692706" fromLane="0" toLane="0"/>
    <connection from="-163197741#0" to="-72692706" fromLane="1" toLane="1"/>
    <connection from="-163197741#0" to="163197741#0" fromLane="1" toLane="1"/>

    <connection from="-163197741#1" to="7126488" fromLane="0" toLane="0"/>
    <connection from="-163197741#1" to="-163197741#0" fromLane="0" toLane="0"/>
    <connection from="-163197741#1" to="-163197741#0" fromLane="1" toLane="1"/>
    <connection from="-163197741#1" to="163197741#1" fromLane="1" toLane="1"/>

    <connection from="-177687070" to="-552622784" fromLane="0" toLane="0"/>
    <connection from="-177687070" to="-552622784" fromLane="1" toLane="1"/>
    <connection from="-177687070" to="177687070" fromLane="1" toLane="1"/>

    <connection from="-177687071" to="177687071" fromLane="1" toLane="1"/>

    <connection from="-182581571" to="-7126253" fromLane="0" toLane="0"/>
    <connection from="-182581571" to="-7126253" fromLane="1" toLane="1"/>
    <connection from="-182581571" to="182581571" fromLane="1" toLane="1"/>

    <connection from="-185518329" to="-7126986" fromLane="0" toLane="0"/>
    <connection from="-185518329" to="185518329" fromLane="0" toLane="0"/>

    <connection from="-187074691" to="-48549668" fromLane="0" toLane="0"/>
    <connection from="-187074691" to="187074691" fromLane="0" toLane="0"/>

    <connection from="-203372279" to="-7126783" fromLane="0" toLane="0"/>
    <connection from="-203372279" to="203372279" fromLane="0" toLane="0"/>

    <connection from="-205327339" to="-81645902" fromLane="0" toLane="0"/>
    <connection from="-205327339" to="-570011216#1" fromLane="0" toLane="0"/>
    <connection from="-205327339" to="-112999354#2" fromLane="0" toLane="0"/>
    <connection from="-205327339" to="205327339" fromLane="0" toLane="0"/>

    <connection from="-205327346" to="-7126136" fromLane="0" toLane="0"/>
    <connection from="-205327346" to="7126129#0" fromLane="0" toLane="0"/>
    <connection from="-205327346" to="205327346" fromLane="0" toLane="0"/>

    <connection from="-210044477" to="210044478" fromLane="0" toLane="0"/>
    <connection from="-210044477" to="210044477" fromLane="0" toLane="0"/>

    <connection from="-210389056" to="27115972" fromLane="0" toLane="0"/>
    <connection from="-210389056" to="-559068511#1" fromLane="0" toLane="0"/>
    <connection from="-210389056" to="-559068511#1" fromLane="1" toLane="1"/>
    <connection from="-210389056" to="210389056" fromLane="1" toLane="1"/>

    <connection from="-214164533" to="-7127123" fromLane="0" toLane="0"/>
    <connection from="-214164533" to="214164533" fromLane="0" toLane="0"/>

    <connection from="-214330823" to="-536634227#1" fromLane="0" toLane="0"/>
    <connection from="-214330823" to="-536634227#1" fromLane="1" toLane="1"/>
    <connection from="-214330823" to="214330823" fromLane="1" toLane="1"/>

    <connection from="-214330828" to="-235657119#0" fromLane="0" toLane="0"/>
    <connection from="-214330828" to="235657119#1" fromLane="0" toLane="0"/>
    <connection from="-214330828" to="214330828" fromLane="0" toLane="0"/>

    <connection from="-216493865" to="-38785111" fromLane="0" toLane="0"/>
    <connection from="-216493865" to="-38785111" fromLane="1" toLane="1"/>
    <connection from="-216493865" to="216493865" fromLane="1" toLane="1"/>

    <connection from="-216493866" to="-26998557" fromLane="0" toLane="0"/>
    <connection from="-216493866" to="-26998557" fromLane="1" toLane="1"/>
    <connection from="-216493866" to="216493866" fromLane="1" toLane="1"/>

    <connection from="-219292817#0" to="7126070" fromLane="0" toLane="0"/>
    <connection from="-219292817#0" to="219292817#0" fromLane="0" toLane="0"/>

    <connection from="-219292817#1" to="-7126067" fromLane="0" toLane="0"/>
    <connection from="-219292817#1" to="-219292817#0" fromLane="0" toLane="0"/>
    <connection from="-219292817#1" to="219292817#1" fromLane="0" toLane="0"/>

    <connection from="-219292817#2" to="-7125991" fromLane="0" toLane="0"/>
    <connection from="-219292817#2" to="-219292817#1" fromLane="0" toLane="0"/>
    <connection from="-219292817#2" to="219292817#2" fromLane="0" toLane="0"/>

    <connection from="-219294649" to="-7125981#1" fromLane="0" toLane="0"/>
    <connection from="-219294649" to="219294649" fromLane="0" toLane="0"/>

    <connection from="-225717287" to="-40807457" fromLane="0" toLane="0"/>
    <connection from="-225717287" to="225717287" fromLane="0" toLane="0"/>

    <connection from="-232314009" to="7126105" fromLane="0" toLane="0"/>
    <connection from="-232314009" to="232314009" fromLane="0" toLane="0"/>

    <connection from="-232314010" to="46256224#0" fromLane="0" toLane="0"/>
    <connection from="-232314010" to="232314010" fromLane="0" toLane="0"/>

    <connection from="-235657119#0" to="-139513058" fromLane="0" toLane="0"/>
    <connection from="-235657119#0" to="235657119#0" fromLane="0" toLane="0"/>

    <connection from="-235657119#1" to="214330828" fromLane="0" toLane="0"/>
    <connection from="-235657119#1" to="-235657119#0" fromLane="0" toLane="0"/>
    <connection from="-235657119#1" to="235657119#1" fromLane="0" toLane="0"/>

    <connection from="-26803647#0" to="-347976788#0" fromLane="0" toLane="0"/>
    <connection from="-26803647#0" to="347976791" fromLane="0" toLane="0"/>
    <connection from="-26803647#0" to="347976788#1" fromLane="0" toLane="0"/>
    <connection from="-26803647#0" to="26803647#0" fromLane="0" toLane="0"/>

    <connection from="-26803647#1" to="-347976788#1" fromLane="0" toLane="0"/>
    <connection from="-26803647#1" to="-26803647#0" fromLane="0" toLane="0"/>
    <connection from="-26803647#1" to="347976788#2" fromLane="0" toLane="0"/>
    <connection from="-26803647#1" to="26803647#1" fromLane="0" toLane="0"/>

    <connection from="-26840215" to="7126721" fromLane="0" toLane="0"/>
    <connection from="-26840215" to="26840215" fromLane="0" toLane="0"/>

    <connection from="-26844326" to="7126087" fromLane="0" toLane="0"/>
    <connection from="-26844326" to="26844326" fromLane="0" toLane="0"/>

    <connection from="-26844444" to="502691249" fromLane="0" toLane="0"/>
    <connection from="-26844444" to="502691262" fromLane="0" toLane="0"/>
    <connection from="-26844444" to="26844444" fromLane="0" toLane="0"/>

    <connection from="-26922995" to="45104554" fromLane="0" toLane="0"/>
    <connection from="-26922995" to="26922995" fromLane="0" toLane="0"/>

    <connection from="-26925156" to="48549755#1" fromLane="0" toLane="0"/>
    <connection from="-26925156" to="-48549755#0" fromLane="0" toLane="0"/>
    <connection from="-26925156" to="26925156" fromLane="0" toLane="0"/>

    <connection from="-26928434" to="-7126738" fromLane="0" toLane="0"/>
    <connection from="-26928434" to="26928434" fromLane="0" toLane="0"/>

    <connection from="-26936653" to="26936591" fromLane="0" toLane="0"/>
    <connection from="-26936653" to="26936653" fromLane="0" toLane="0"/>

    <connection from="-26942352" to="493692914" fromLane="0" toLane="0"/>
    <connection from="-26942352" to="26942352" fromLane="0" toLane="0"/>

    <connection from="-26942785#0" to="26942785#0" fromLane="0" toLane="0"/>

    <connection from="-26942785#1" to="-26942785#0" fromLane="0" toLane="0"/>
    <connection from="-26942785#1" to="-40566108" fromLane="0" toLane="0"/>
    <connection from="-26942785#1" to="26942785#1" fromLane="0" toLane="0"/>

    <connection from="-26953959" to="-7126129#0" fromLane="0" toLane="0"/>
    <connection from="-26953959" to="7126129#1" fromLane="0" toLane="0"/>
    <connection from="-26953959" to="26953959" fromLane="0" toLane="0"/>

    <connection from="-26954088" to="-7126196" fromLane="0" toLane="0"/>
    <connection from="-26954088" to="26954088" fromLane="0" toLane="0"/>

    <connection from="-26978544" to="-144552860" fromLane="0" toLane="0"/>
    <connection from="-26978544" to="-144552860" fromLane="1" toLane="1"/>
    <connection from="-26978544" to="-32781129" fromLane="1" toLane="0"/>
    <connection from="-26978544" to="26978544" fromLane="1" toLane="1"/>

    <connection from="-26980274" to="7127420#2" fromLane="0" toLane="0"/>
    <connection from="-26980274" to="-7127138#1" fromLane="0" toLane="0"/>
    <connection from="-26980274" to="-7127420#1" fromLane="0" toLane="1"/>
    <connection from="-26980274" to="26980274" fromLane="0" toLane="0"/>

    <connection from="-26980275#0" to="-7127420#0" fromLane="0" toLane="0"/>
    <connection from="-26980275#0" to="-7127137#1" fromLane="0" toLane="0"/>
    <connection from="-26980275#0" to="7127420#1" fromLane="0" toLane="1"/>
    <connection from="-26980275#0" to="26980275#0" fromLane="0" toLane="0"/>

    <connection from="-26980275#1" to="217136955#3" fromLane="0" toLane="0"/>
    <connection from="-26980275#1" to="-26980275#0" fromLane="0" toLane="0"/>
    <connection from="-26980275#1" to="26980275#1" fromLane="0" toLane="0"/>

    <connection from="-26992506" to="7126088" fromLane="0" toLane="0"/>
    <connection from="-26992506" to="243614281#0" fromLane="0" toLane="0"/>
    <connection from="-26992506" to="26992506" fromLane="0" toLane="0"/>

    <connection from="-26998552" to="-346026926" fromLane="0" toLane="0"/>
    <connection from="-26998552" to="-346026926" fromLane="1" toLane="1"/>
    <connection from="-26998552" to="26998552" fromLane="1" toLane="1"/>

    <connection from="-26998557" to="-26998552" fromLane="0" toLane="0"/>
    <connection from="-26998557" to="-26998552" fromLane="1" toLane="1"/>
    <connection from="-26998557" to="26998557" fromLane="1" toLane="1"/>

    <connection from="-27118018" to="27118035" fromLane="0" toLane="0"/>
    <connection from="-27118018" to="27118018" fromLane="0" toLane="0"/>

    <connection from="-27118035" to="27118018" fromLane="0" toLane="0"/>
    <connection from="-27118035" to="27118035" fromLane="0" toLane="0"/>

    <connection from="-27140778" to="-38785609" fromLane="0" toLane="0"/>
    <connection from="-27140778" to="7126101" fromLane="0" toLane="0"/>
    <connection from="-27140778" to="27140778" fromLane="0" toLane="0"/>

    <connection from="-27197387" to="27197387" fromLane="0" toLane="0"/>

    <connection from="-272834095" to="-7126088" fromLane="0" toLane="0"/>
    <connection from="-272834095" to="272834095" fromLane="0" toLane="0"/>

    <connection from="-276481953" to="-276481955" fromLane="0" toLane="0"/>
    <connection from="-276481953" to="276481953" fromLane="0" toLane="0"/>

    <connection from="-276481955" to="-7126341" fromLane="0" toLane="0"/>
    <connection from="-276481955" to="276481955" fromLane="0" toLane="0"/>

    <connection from="-276481958" to="145170781" fromLane="0" toLane="0"/>
    <connection from="-276481958" to="-7124897" fromLane="0" toLane="0"/>
    <connection from="-276481958" to="276481958" fromLane="0" toLane="0"/>

    <connection from="-276481961" to="-276481958" fromLane="0" toLane="0"/>
    <connection from="-276481961" to="276481961" fromLane="0" toLane="0"/>

    <connection from="-276517378" to="-7126315" fromLane="0" toLane="0"/>
    <connection from="-276517378" to="276517378" fromLane="0" toLane="0"/>

    <connection from="-276517379#0" to="-276517378" fromLane="0" toLane="0"/>
    <connection from="-276517379#0" to="276517379#0" fromLane="0" toLane="0"/>

    <connection from="-276517379#1" to="7126019" fromLane="0" toLane="0"/>
    <connection from="-276517379#1" to="-276517379#0" fromLane="0" toLane="0"/>
    <connection from="-276517379#1" to="276517379#1" fromLane="0" toLane="0"/>

    <connection from="-277644880" to="-26925156" fromLane="0" toLane="0"/>
    <connection from="-277644880" to="277644880" fromLane="0" toLane="0"/>

    <connection from="-277649147" to="-40856530" fromLane="0" toLane="0"/>
    <connection from="-277649147" to="277649147" fromLane="0" toLane="0"/>

    <connection from="-277649148" to="-277649147" fromLane="0" toLane="0"/>
    <connection from="-277649148" to="277649148" fromLane="0" toLane="0"/>

    <connection from="-277707115" to="346026931#1" fromLane="0" toLane="0"/>
    <connection from="-277707115" to="277707115" fromLane="0" toLane="0"/>

    <connection from="-27915255" to="-41145974" fromLane="0" toLane="0"/>
    <connection from="-27915255" to="27915255" fromLane="0" toLane="0"/>

    <connection from="-301818149" to="-7125115" fromLane="0" toLane="0"/>
    <connection from="-301818149" to="301818149" fromLane="0" toLane="0"/>

    <connection from="-301818150" to="-301818149" fromLane="0" toLane="0"/>
    <connection from="-301818150" to="301818150" fromLane="0" toLane="0"/>

    <connection from="-302773813#0" to="-7126043" fromLane="0" toLane="0"/>
    <connection from="-302773813#0" to="7126069#0" fromLane="0" toLane="0"/>
    <connection from="-302773813#0" to="302773813#0" fromLane="0" toLane="0"/>

    <connection from="-302773813#1" to="7126016" fromLane="0" toLane="0"/>
    <connection from="-302773813#1" to="-302773813#0" fromLane="0" toLane="0"/>
    <connection from="-302773813#1" to="-7126022" fromLane="0" toLane="0"/>
    <connection from="-302773813#1" to="302773813#1" fromLane="0" toLane="0"/>

    <connection from="-302773813#2" to="-302773813#1" fromLane="0" toLane="0"/>
    <connection from="-302773813#2" to="-7126045" fromLane="0" toLane="0"/>
    <connection from="-302773813#2" to="302773813#2" fromLane="0" toLane="0"/>

    <connection from="-302791989#0" to="7126340" fromLane="0" toLane="0"/>
    <connection from="-302791989#0" to="-7126350" fromLane="0" toLane="0"/>
    <connection from="-302791989#0" to="-7126351" fromLane="0" toLane="0"/>
    <connection from="-302791989#0" to="302791989#0" fromLane="0" toLane="0"/>

    <connection from="-302791989#1" to="-7126340" fromLane="0" toLane="0"/>
    <connection from="-302791989#1" to="-302791989#0" fromLane="0" toLane="0"/>
    <connection from="-302791989#1" to="302791989#1" fromLane="0" toLane="0"/>

    <connection from="-31138878#0" to="-7126980" fromLane="0" toLane="0"/>
    <connection from="-31138878#0" to="-7126848" fromLane="0" toLane="0"/>
    <connection from="-31138878#0" to="31138878#0" fromLane="0" toLane="0"/>

    <connection from="-31138878#1" to="7126838" fromLane="0" toLane="0"/>
    <connection from="-31138878#1" to="-31138878#0" fromLane="0" toLane="0"/>
    <connection from="-31138878#1" to="31138878#1" fromLane="0" toLane="0"/>

    <connection from="-31138878#2" to="-31138878#1" fromLane="0" toLane="0"/>
    <connection from="-31138878#2" to="31138878#2" fromLane="0" toLane="0"/>

    <connection from="-31261358" to="-7126711#0" fromLane="0" toLane="0"/>
    <connection from="-31261358" to="7126711#1" fromLane="0" toLane="0"/>
    <connection from="-31261358" to="31261358" fromLane="0" toLane="0"/>

    <connection from="-313162306" to="-276481961" fromLane="0" toLane="0"/>
    <connection from="-313162306" to="313162306" fromLane="0" toLane="0"/>

    <connection from="-31901599" to="-7126906" fromLane="0" toLane="0"/>
    <connection from="-31901599" to="31901599" fromLane="0" toLane="0"/>

    <connection from="-32064192" to="-358586202" fromLane="0" toLane="0"/>
    <connection from="-32064192" to="38785607#0" fromLane="0" toLane="1"/>
    <connection from="-32064192" to="32064192" fromLane="0" toLane="0"/>

    <connection from="-32102945" to="-357771033" fromLane="0" toLane="0"/>
    <connection from="-32102945" to="-357771033" fromLane="1" toLane="1"/>
    <connection from="-32102945" to="32102945" fromLane="1" toLane="1"/>

    <connection from="-32781129" to="32781129" fromLane="0" toLane="0"/>

    <connection from="-33073203" to="-54621768" fromLane="0" toLane="0"/>
    <connection from="-33073203" to="33073203" fromLane="0" toLane="0"/>

    <connection from="-333815619" to="-548213905" fromLane="0" toLane="0"/>
    <connection from="-333815619" to="333815619" fromLane="0" toLane="0"/>

    <connection from="-34249124" to="-7126851" fromLane="0" toLane="0"/>
    <connection from="-34249124" to="7126658" fromLane="0" toLane="0"/>
    <connection from="-34249124" to="34249124" fromLane="0" toLane="0"/>

    <connection from="-343481053" to="-7126486" fromLane="0" toLane="0"/>
    <connection from="-343481053" to="343481053" fromLane="0" toLane="0"/>

    <connection from="-343919233" to="-48549755#1" fromLane="0" toLane="0"/>
    <connection from="-343919233" to="343919233" fromLane="0" toLane="0"/>

    <connection from="-346026926" to="7126442" fromLane="0" toLane="0"/>
    <connection from="-346026926" to="7126442" fromLane="1" toLane="1"/>
    <connection from="-346026926" to="346026926" fromLane="1" toLane="1"/>

    <connection from="-347976787" to="-347976788#2" fromLane="0" toLane="0"/>
    <connection from="-347976787" to="-26803647#1" fromLane="0" toLane="0"/>
    <connection from="-347976787" to="347976790" fromLane="0" toLane="0"/>
    <connection from="-347976787" to="347976788#3" fromLane="0" toLane="0"/>
    <connection from="-347976787" to="347976787" fromLane="0" toLane="0"/>

    <connection from="-347976788#0" to="-347976788#3" fromLane="0" toLane="0"/>
    <connection from="-347976788#0" to="-347976787" fromLane="0" toLane="0"/>
    <connection from="-347976788#0" to="347976789" fromLane="0" toLane="0"/>
    <connection from="-347976788#0" to="347976788#0" fromLane="0" toLane="0"/>

    <connection from="-347976788#1" to="-347976788#0" fromLane="0" toLane="0"/>
    <connection from="-347976788#1" to="347976791" fromLane="0" toLane="0"/>
    <connection from="-347976788#1" to="26803647#0" fromLane="0" toLane="0"/>
    <connection from="-347976788#1" to="347976788#1" fromLane="0" toLane="0"/>

    <connection from="-347976788#2" to="-347976788#1" fromLane="0" toLane="0"/>
    <connection from="-347976788#2" to="-26803647#0" fromLane="0" toLane="0"/>
    <connection from="-347976788#2" to="26803647#1" fromLane="0" toLane="0"/>
    <connection from="-347976788#2" to="347976788#2" fromLane="0" toLane="0"/>

    <connection from="-347976788#3" to="-347976788#2" fromLane="0" toLane="0"/>
    <connection from="-347976788#3" to="-26803647#1" fromLane="0" toLane="0"/>
    <connection from="-347976788#3" to="347976790" fromLane="0" toLane="0"/>
    <connection from="-347976788#3" to="347976787" fromLane="0" toLane="0"/>
    <connection from="-347976788#3" to="347976788#3" fromLane="0" toLane="0"/>

    <connection from="-347976790" to="347976788#3" fromLane="0" toLane="0"/>
    <connection from="-347976790" to="347976787" fromLane="0" toLane="0"/>
    <connection from="-347976790" to="-347976788#2" fromLane="0" toLane="0"/>
    <connection from="-347976790" to="-26803647#1" fromLane="0" toLane="0"/>
    <connection from="-347976790" to="347976790" fromLane="0" toLane="0"/>

    <connection from="-357771033" to="7126419" fromLane="0" toLane="0"/>
    <connection from="-357771033" to="7126419" fromLane="1" toLane="1"/>
    <connection from="-357771033" to="357771033" fromLane="1" toLane="1"/>

    <connection from="-358586202" to="-7126108" fromLane="0" toLane="0"/>
    <connection from="-358586202" to="358586202" fromLane="0" toLane="0"/>

    <connection from="-377073560" to="-40271394#1" fromLane="0" toLane="0"/>
    <connection from="-377073560" to="-40271394#1" fromLane="1" toLane="1"/>
    <connection from="-377073560" to="377073560" fromLane="1" toLane="1"/>

    <connection from="-38785111" to="-343919233" fromLane="0" toLane="0"/>
    <connection from="-38785111" to="-7126597" fromLane="0" toLane="0"/>
    <connection from="-38785111" to="-7126597" fromLane="1" toLane="1"/>
    <connection from="-38785111" to="38785111" fromLane="1" toLane="1"/>

    <connection from="-38785609" to="-4839154#1" fromLane="0" toLane="0"/>
    <connection from="-38785609" to="38785609" fromLane="0" toLane="0"/>

    <connection from="-38839727" to="-7126178" fromLane="0" toLane="0"/>
    <connection from="-38839727" to="26796058" fromLane="0" toLane="0"/>
    <connection from="-38839727" to="38839727" fromLane="0" toLane="0"/>

    <connection from="-38839728" to="-38839727" fromLane="0" toLane="0"/>
    <connection from="-38839728" to="38839728" fromLane="0" toLane="0"/>

    <connection from="-39855763" to="-481819354" fromLane="0" toLane="0"/>
    <connection from="-39855763" to="26793707" fromLane="0" toLane="0"/>
    <connection from="-39855763" to="26793707" fromLane="1" toLane="1"/>

    <connection from="-40271394#0" to="-7127391#2" fromLane="0" toLane="0"/>
    <connection from="-40271394#0" to="-7127391#2" fromLane="1" toLane="1"/>
    <connection from="-40271394#0" to="40271394#0" fromLane="1" toLane="1"/>

    <connection from="-40271394#1" to="7127150" fromLane="0" toLane="0"/>
    <connection from="-40271394#1" to="-40271394#0" fromLane="0" toLane="0"/>
    <connection from="-40271394#1" to="-40271394#0" fromLane="1" toLane="1"/>
    <connection from="-40271394#1" to="40271394#1" fromLane="1" toLane="1"/>

    <connection from="-40495600" to="40495600" fromLane="0" toLane="0"/>

    <connection from="-40495673" to="-7126658" fromLane="0" toLane="0"/>
    <connection from="-40495673" to="40495673" fromLane="0" toLane="0"/>

    <connection from="-40553508" to="-43217088" fromLane="0" toLane="0"/>
    <connection from="-40553508" to="148634995#1" fromLane="0" toLane="2"/>
    <connection from="-40553508" to="40553508" fromLane="0" toLane="0"/>
