<?xml version="1.0" encoding="UTF-8"?>

<!-- generated on 30-May-18 2:25:16 PM by Netedit Version 0.32.0
<?xml version="1.0" encoding="UTF-8"?>

<configuration xmlns:xsi="http://www.w3.org/2001/XMLSchema-instance" xsi:noNamespaceSchemaLocation="http://sumo.dlr.de/xsd/netconvertConfiguration.xsd">

    <input>
        <sumo-net-file value="C:\Users\UnPerson\Documents\Knowledge%20Engineering\Project%202.2\Project%202.2\core\assets\MapXmls\AZ\az.net.xml"/>
    </input>

    <output>
        <output-file value="C:\Users\UnPerson\Documents\Knowledge%20Engineering\Project%202.2\Project%202.2\core\assets\MapXmls\AZ\az.net.xml"/>
        <plain-output-prefix value="C:\Users\UnPerson\Documents\Knowledge%20Engineering\Project%202.2\Project%202.2\core\assets\MapXmls\AZ\TempeSmall"/>
    </output>

    <processing>
        <no-turnarounds value="true"/>
        <offset.disable-normalization value="true"/>
        <lefthand value="false"/>
        <junctions.corner-detail value="0"/>
        <rectangular-lane-cut value="false"/>
        <walkingareas value="false"/>
    </processing>

</configuration>
-->

<edges version="0.27" xmlns:xsi="http://www.w3.org/2001/XMLSchema-instance" xsi:noNamespaceSchemaLocation="http://sumo.dlr.de/xsd/edges_file.xsd">
    <edge id="-131637195" from="41573841" to="1448545227" priority="7" type="highway.secondary" numLanes="3" speed="27.78" shape="4824.61,6471.01 4824.75,6455.03 4825.09,6416.76" disallow="tram rail_urban rail rail_electric ship"/>
    <edge id="-146204145" from="1594788066" to="1594788068" priority="4" type="highway.residential" numLanes="1" speed="13.89" disallow="tram rail_urban rail rail_electric ship"/>
    <edge id="-167557815" from="1789501265" to="1789501264" priority="6" type="highway.tertiary" numLanes="1" speed="22.22" disallow="tram rail_urban rail rail_electric ship"/>
    <edge id="-167557816#0" from="41982369" to="1789501265" priority="6" type="highway.tertiary" numLanes="1" speed="22.22" shape="3378.00,4033.54 3388.21,4031.64 3400.87,4027.90 3423.54,4017.03 3435.60,4009.58 3447.66,4002.12 3468.55,3987.07 3498.43,3966.86 3528.31,3946.66 3540.00,3937.77" disallow="tram rail_urban rail rail_electric ship"/>
    <edge id="-167557816#1" from="3240668158" to="41982369" priority="6" type="highway.tertiary" numLanes="1" speed="22.22" shape="3287.36,4039.27 3309.88,4038.49 3350.57,4037.06 3367.79,4035.43 3378.00,4033.54" disallow="tram rail_urban rail rail_electric ship"/>
    <edge id="-167557816#2" from="41493671" to="3240668158" priority="6" type="highway.tertiary" numLanes="1" speed="22.22" disallow="tram rail_urban rail rail_electric ship"/>
    <edge id="-167557816#3" from="2367837870" to="41493671" priority="6" type="highway.tertiary" numLanes="1" speed="22.22" disallow="tram rail_urban rail rail_electric ship"/>
    <edge id="-167557816#4" from="2367837872" to="2367837870" priority="6" type="highway.tertiary" numLanes="1" speed="22.22" shape="3193.76,4043.05 3200.24,4042.87 3207.35,4042.66" disallow="tram rail_urban rail rail_electric ship"/>
    <edge id="-216975369#0" from="2262911865" to="2262911881" priority="4" type="highway.residential" numLanes="1" speed="13.89" shape="4641.11,4545.43 4641.95,4623.54 4643.68,4710.08" disallow="tram rail_urban rail rail_electric ship"/>
    <edge id="-216975369#1" from="2262911853" to="2262911865" priority="4" type="highway.residential" numLanes="1" speed="13.89" shape="4750.19,4453.53 4727.00,4442.72 4710.25,4444.75 4641.97,4448.20 4640.16,4458.28 4641.11,4545.43" disallow="tram rail_urban rail rail_electric ship"/>
    <edge id="-216975369#2" from="3951060329" to="2262911853" priority="4" type="highway.residential" numLanes="1" speed="13.89" shape="4789.00,4456.64 4768.57,4457.14 4750.19,4453.53" disallow="tram rail_urban rail rail_electric ship"/>
    <edge id="-216975372" from="2262911865" to="2262911863" priority="4" type="highway.residential" numLanes="1" speed="13.89" disallow="tram rail_urban rail rail_electric ship"/>
    <edge id="-216975375" from="2262911699" to="2262911731" priority="4" type="highway.residential" numLanes="1" speed="13.89" shape="5024.19,4038.02 5025.59,4054.37 5028.60,4072.11" disallow="tram rail_urban rail rail_electric ship"/>
    <edge id="-216975382#0" from="2262911863" to="2262911881" priority="4" type="highway.residential" numLanes="1" speed="13.89" shape="4754.29,4543.80 4759.16,4662.40 4759.78,4677.38 4758.22,4715.67 4735.79,4718.08 4657.68,4719.41 4643.68,4710.08" disallow="tram rail_urban rail rail_electric ship"/>
    <edge id="-216975382#1" from="2262911853" to="2262911863" priority="4" type="highway.residential" numLanes="1" speed="13.89" shape="4750.19,4453.53 4752.88,4507.02 4754.29,4543.80" disallow="tram rail_urban rail rail_electric ship"/>
    <edge id="-228150766#0" from="42276049" to="2367837912" priority="7" type="highway.secondary" numLanes="3" speed="27.78" disallow="tram rail_urban rail rail_electric ship"/>
    <edge id="-228150766#1" from="3583644674" to="42276049" priority="7" type="highway.secondary" numLanes="3" speed="27.78" disallow="tram rail_urban rail rail_electric ship"/>
    <edge id="-228150766#2" from="41652831" to="3583644674" priority="7" type="highway.secondary" numLanes="3" speed="27.78" disallow="tram rail_urban rail rail_electric ship"/>
    <edge id="-240233418" from="41330875" to="2479791021" priority="4" type="highway.residential" numLanes="1" speed="13.89" disallow="tram rail_urban rail rail_electric ship"/>
    <edge id="-240233462#0" from="41330886" to="2479791086" priority="4" type="highway.residential" numLanes="1" speed="13.89" shape="5524.71,6383.78 5510.34,6386.57 5492.06,6387.21 5480.73,6386.01" disallow="tram rail_urban rail rail_electric ship"/>
    <edge id="-240233462#1" from="2479791084" to="41330886" priority="4" type="highway.residential" numLanes="1" speed="13.89" shape="5566.31,6382.09 5560.68,6380.89 5541.33,6380.83 5524.71,6383.78" disallow="tram rail_urban rail rail_electric ship"/>
    <edge id="-240233463#0" from="41330888" to="2479791048" priority="4" type="highway.residential" numLanes="1" speed="13.89" shape="5526.09,6255.91 5513.80,6253.62 5495.39,6253.03 5483.76,6254.62" disallow="tram rail_urban rail rail_electric ship"/>
    <edge id="-240233463#1" from="2479791052" to="41330888" priority="4" type="highway.residential" numLanes="1" speed="13.89" shape="5566.72,6258.43 5555.30,6259.39 5534.49,6257.56 5526.09,6255.91" disallow="tram rail_urban rail rail_electric ship"/>
    <edge id="-28630729" from="41566773" to="41566775" priority="4" type="highway.residential" numLanes="1" speed="13.89" shape="3893.35,4056.87 3870.52,4060.54 3853.76,4065.89 3816.38,4085.31" disallow="tram rail_urban rail rail_electric ship"/>
    <edge id="-28630826" from="314685028" to="314684346" priority="4" type="highway.residential" numLanes="1" speed="13.89" shape="3996.54,4392.27 4002.03,4381.09 4003.39,4354.83" disallow="tram rail_urban rail rail_electric ship"/>
    <edge id="-28630986#0" from="41613103" to="314687797" priority="4" type="highway.residential" numLanes="1" speed="13.89" disallow="tram rail_urban rail rail_electric ship"/>
    <edge id="-28630986#1" from="41784059" to="41613103" priority="4" type="highway.residential" numLanes="1" speed="13.89" disallow="tram rail_urban rail rail_electric ship"/>
    <edge id="-28631097#0" from="42411098" to="41884337" priority="6" type="highway.tertiary" numLanes="1" speed="22.22" shape="5163.36,4037.76 5218.82,4036.29 5241.97,4033.70 5268.27,4027.10 5270.30,4026.32 5287.39,4019.77 5307.27,4009.26 5317.61,4003.60 5334.15,3991.50" disallow="tram rail_urban rail rail_electric ship"/>
    <edge id="-28631097#1" from="2262911699" to="42411098" priority="6" type="highway.tertiary" numLanes="1" speed="22.22" disallow="tram rail_urban rail rail_electric ship"/>
    <edge id="-28631097#2" from="41556347" to="2262911699" priority="6" type="highway.tertiary" numLanes="1" speed="22.22" disallow="tram rail_urban rail rail_electric ship"/>
    <edge id="-28631097#3" from="5206560479" to="41556347" priority="6" type="highway.tertiary" numLanes="1" speed="22.22" disallow="tram rail_urban rail rail_electric ship"/>
    <edge id="-28711269" from="41956629" to="315620556" priority="4" type="highway.residential" numLanes="1" speed="13.89" disallow="tram rail_urban rail rail_electric ship"/>
    <edge id="-28713007#5" from="41638633" to="41956629" priority="4" type="highway.residential" numLanes="1" speed="13.89" disallow="tram rail_urban rail rail_electric ship"/>
    <edge id="-28713007#6" from="41851731" to="41638633" priority="4" type="highway.residential" numLanes="1" speed="13.89" disallow="tram rail_urban rail rail_electric ship"/>
    <edge id="-28713007#7" from="41956635" to="41851731" priority="4" type="highway.residential" numLanes="1" speed="13.89" disallow="tram rail_urban rail rail_electric ship"/>
    <edge id="-28713007#8" from="41941581" to="41956635" priority="4" type="highway.residential" numLanes="1" speed="13.89" shape="5676.25,6065.19 5713.01,6065.66 5745.03,6073.33 5780.28,6084.94 5850.75,6104.20 5897.14,6110.16 5941.89,6112.15 5973.84,6111.87" disallow="tram rail_urban rail rail_electric ship"/>
    <edge id="-28713007#9" from="315643264" to="41941581" priority="4" type="highway.residential" numLanes="1" speed="13.89" disallow="tram rail_urban rail rail_electric ship"/>
    <edge id="-28715796" from="315709783" to="42675453" priority="4" type="highway.residential" numLanes="1" speed="13.89" disallow="tram rail_urban rail rail_electric ship"/>
    <edge id="-28715797" from="42675457" to="315709831" priority="4" type="highway.residential" numLanes="1" speed="13.89" disallow="tram rail_urban rail rail_electric ship"/>
    <edge id="-28715927#0" from="41245435" to="41372709" priority="4" type="highway.residential" numLanes="1" speed="13.89" shape="5227.60,5882.20 5227.45,6135.06 5231.52,6143.78" disallow="tram rail_urban rail rail_electric ship"/>
    <edge id="-28715927#1" from="315714314" to="41245435" priority="4" type="highway.residential" numLanes="1" speed="13.89" disallow="tram rail_urban rail rail_electric ship"/>
    <edge id="-28716335" from="315719112" to="41708414" priority="4" type="highway.residential" numLanes="1" speed="13.89" shape="5157.97,5777.06 5164.24,5763.49 5161.71,5658.55" disallow="tram rail_urban rail rail_electric ship"/>
    <edge id="-28716352#0" from="42675449" to="41758343" priority="4" type="highway.residential" numLanes="1" speed="13.89" shape="5242.69,4992.06 5237.33,5045.55 5237.00,5048.75 5236.65,5072.02 5236.73,5075.47 5237.79,5116.21" disallow="tram rail_urban rail rail_electric ship"/>
    <edge id="-28716352#1" from="42398660" to="42675449" priority="4" type="highway.residential" numLanes="1" speed="13.89" shape="5247.51,4905.33 5247.05,4911.86 5244.86,4943.71 5244.60,4949.43 5243.05,4984.00 5242.69,4992.06" disallow="tram rail_urban rail rail_electric ship"/>
    <edge id="-28716352#2" from="42402495" to="42398660" priority="4" type="highway.residential" numLanes="1" speed="13.89" disallow="tram rail_urban rail rail_electric ship"/>
    <edge id="-28716352#3" from="2139420496" to="42402495" priority="4" type="highway.residential" numLanes="1" speed="13.89" shape="5246.82,4830.17 5246.86,4837.47 5246.93,4845.12" disallow="tram rail_urban rail rail_electric ship"/>
    <edge id="-28725576#0" from="2093037284" to="315708631" priority="4" type="highway.residential" numLanes="1" speed="13.89" disallow="tram rail_urban rail rail_electric ship"/>
    <edge id="-28725576#1" from="315702698" to="2093037284" priority="4" type="highway.residential" numLanes="1" speed="13.89" shape="6412.44,5066.26 6418.88,5066.35 6423.87,5066.42" disallow="tram rail_urban rail rail_electric ship"/>
    <edge id="-28730788" from="315890363" to="315890652" priority="4" type="highway.residential" numLanes="1" speed="13.89" disallow="tram rail_urban rail rail_electric ship"/>
    <edge id="-28731411" from="41712817" to="42652496" priority="4" type="highway.residential" numLanes="1" speed="13.89" shape="3791.55,6280.09 3785.24,6288.89 3780.57,6303.25 3778.31,6406.63 3780.78,6415.36 3784.05,6422.48" disallow="tram rail_urban rail rail_electric ship"/>
    <edge id="-28731653" from="315898467" to="315898003" priority="4" type="highway.residential" numLanes="1" speed="13.89" disallow="tram rail_urban rail rail_electric ship"/>
    <edge id="-28737849" from="41611994" to="315985982" priority="4" type="highway.residential" numLanes="1" speed="13.89" shape="4299.43,4967.94 4290.45,4946.54 4277.52,4929.96 4263.06,4921.34 4256.44,4918.90 4246.22,4915.13 4196.66,4912.40 4021.69,4913.17" disallow="tram rail_urban rail rail_electric ship"/>
    <edge id="-28737866#0" from="41611994" to="41908997" priority="4" type="highway.residential" numLanes="1" speed="13.89" shape="4299.43,4967.94 4263.61,4983.36 4238.90,4989.95 4214.15,4992.56 4163.82,4992.22 4093.51,4992.85 4075.95,4994.59" disallow="tram rail_urban rail rail_electric ship"/>
    <edge id="-28737866#1" from="315986031" to="41611994" priority="4" type="highway.residential" numLanes="1" speed="13.89" disallow="tram rail_urban rail rail_electric ship"/>
    <edge id="-28737919" from="41631081" to="41837707" priority="4" type="highway.residential" numLanes="1" speed="13.89" disallow="tram rail_urban rail rail_electric ship"/>
    <edge id="-28864306#1" from="42264081" to="41884812" priority="4" type="highway.residential" numLanes="1" speed="13.89" disallow="tram rail_urban rail rail_electric ship"/>
    <edge id="-28884176#0" from="41533468" to="41632096" priority="7" type="highway.secondary" numLanes="3" speed="27.78" disallow="tram rail_urban rail rail_electric ship"/>
    <edge id="-28884176#1" from="41914039" to="41533468" priority="7" type="highway.secondary" numLanes="3" speed="27.78" disallow="tram rail_urban rail rail_electric ship"/>
    <edge id="-28884176#2" from="41859643" to="41914039" priority="7" type="highway.secondary" numLanes="3" speed="27.78" shape="3441.88,6479.60 3506.30,6479.52 3514.07,6479.51 3523.07,6479.49 3620.80,6480.42" disallow="tram rail_urban rail rail_electric ship"/>
    <edge id="-28884176#3" from="4346642891" to="41859643" priority="7" type="highway.secondary" numLanes="3" speed="27.78" disallow="tram rail_urban rail rail_electric ship"/>
    <edge id="-28900881#0" from="42354882" to="42354880" priority="4" type="highway.residential" numLanes="1" speed="13.89" disallow="tram rail_urban rail rail_electric ship"/>
    <edge id="-28900881#1" from="42354888" to="42354882" priority="4" type="highway.residential" numLanes="1" speed="13.89" shape="5973.66,5909.10 5973.31,5868.33 5972.37,5761.80 5971.87,5704.77" disallow="tram rail_urban rail rail_electric ship"/>
    <edge id="-28900881#2" from="41884887" to="42354888" priority="4" type="highway.residential" numLanes="1" speed="13.89" shape="5973.75,6010.09 5973.73,5979.65 5973.66,5909.10" disallow="tram rail_urban rail rail_electric ship"/>
    <edge id="-28900881#3" from="41956635" to="41884887" priority="4" type="highway.residential" numLanes="1" speed="13.89" disallow="tram rail_urban rail rail_electric ship"/>
    <edge id="-28900881#4" from="41650315" to="41956635" priority="4" type="highway.residential" numLanes="1" speed="13.89" shape="6003.62,6226.90 5989.02,6202.38 5980.82,6178.60 5974.97,6148.44 5973.84,6111.87" disallow="tram rail_urban rail rail_electric ship"/>
    <edge id="-28900881#5" from="42354932" to="41650315" priority="4" type="highway.residential" numLanes="1" speed="13.89" shape="6026.69,6397.65 6026.76,6343.36 6025.00,6295.89 6020.79,6272.08 6017.23,6258.37 6003.62,6226.90" disallow="tram rail_urban rail rail_electric ship"/>
    <edge id="-28900881#6" from="41632074" to="42354932" priority="4" type="highway.residential" numLanes="1" speed="13.89" disallow="tram rail_urban rail rail_electric ship"/>
    <edge id="-28902477" from="41662564" to="41632096" priority="4" type="highway.residential" numLanes="1" speed="13.89" disallow="tram rail_urban rail rail_electric ship"/>
    <edge id="-318514082#0" from="41654279" to="2093037315" priority="4" type="highway.residential" numLanes="1" speed="13.89" disallow="tram rail_urban rail rail_electric ship"/>
    <edge id="-326364340#0" from="41632088" to="5145026365" priority="7" type="highway.secondary" numLanes="3" speed="27.78" shape="4624.88,6471.40 4690.85,6471.27 4715.58,6471.05" disallow="tram rail_urban rail rail_electric ship"/>
    <edge id="-326364340#1" from="41632092" to="41632088" priority="7" type="highway.secondary" numLanes="3" speed="27.78" shape="4364.43,6474.43 4427.52,6474.35 4624.88,6471.40" disallow="tram rail_urban rail rail_electric ship"/>
    <edge id="-326364340#2" from="41588018" to="41632092" priority="7" type="highway.secondary" numLanes="3" speed="27.78" disallow="tram rail_urban rail rail_electric ship"/>
    <edge id="-326364340#3" from="317689775" to="41588018" priority="7" type="highway.secondary" numLanes="3" speed="27.78" disallow="tram rail_urban rail rail_electric ship"/>
    <edge id="-32705099#0" from="41851121" to="5142807721" priority="6" type="highway.tertiary" numLanes="1" speed="22.22" shape="5456.93,5655.23 5432.20,5655.50 5362.86,5656.28 5327.98,5656.68" disallow="tram rail_urban rail rail_electric ship"/>
    <edge id="-32705099#1" from="41770164" to="41851121" priority="6" type="highway.tertiary" numLanes="1" speed="22.22" disallow="tram rail_urban rail rail_electric ship"/>
    <edge id="-34108713" from="41955080" to="2139420549" priority="6" type="highway.tertiary" numLanes="1" speed="22.22" disallow="tram rail_urban rail rail_electric ship"/>
    <edge id="-34108714" from="41586553" to="42619015" priority="4" type="highway.residential" numLanes="1" speed="13.89" shape="5784.68,4778.06 5893.80,4753.22 5947.27,4732.90 6003.01,4710.13" disallow="tram rail_urban rail rail_electric ship"/>
    <edge id="-34108916" from="3951055965" to="3951060182" priority="4" type="highway.residential" numLanes="1" speed="13.89" shape="4787.64,3405.36 4782.18,3405.49 4776.70,3405.99" disallow="tram rail_urban rail rail_electric ship"/>
    <edge id="-34110049#0" from="41982508" to="41982501" priority="4" type="highway.residential" numLanes="1" speed="13.89" shape="3619.80,4913.61 3620.53,4863.96 3620.45,4855.06" disallow="tram rail_urban rail rail_electric ship"/>
    <edge id="-34110049#1" from="41982512" to="41982508" priority="4" type="highway.residential" numLanes="1" speed="13.89" disallow="tram rail_urban rail rail_electric ship"/>
    <edge id="-34110049#2" from="41982516" to="41982512" priority="4" type="highway.residential" numLanes="1" speed="13.89" disallow="tram rail_urban rail rail_electric ship"/>
    <edge id="-34110049#3" from="41758410" to="41982516" priority="4" type="highway.residential" numLanes="1" speed="13.89" disallow="tram rail_urban rail rail_electric ship"/>
    <edge id="-34110049#4" from="41982522" to="41758410" priority="4" type="highway.residential" numLanes="1" speed="13.89" disallow="tram rail_urban rail rail_electric ship"/>
    <edge id="-350922552" from="3566398203" to="3566398197" priority="4" type="highway.residential" numLanes="1" speed="13.89" disallow="tram rail_urban rail rail_electric ship"/>
    <edge id="-350922561" from="3566398210" to="3566398204" priority="4" type="highway.residential" numLanes="1" speed="13.89" shape="3524.98,3665.38 3615.91,3620.99 3639.99,3609.23" disallow="tram rail_urban rail rail_electric ship"/>
    <edge id="-351681555" from="3574977608" to="41610942" priority="4" type="highway.residential" numLanes="1" speed="13.89" shape="4043.95,4637.71 4044.55,4651.00 4039.32,4663.39 4035.26,4671.89 4030.26,4682.32 4028.05,4705.80 4029.19,4725.37 4030.03,4738.66 4019.76,4751.10" disallow="tram rail_urban rail rail_electric ship"/>
    <edge id="-352666180" from="3584203369" to="3584203368" priority="4" type="highway.residential" numLanes="1" speed="13.89" disallow="tram rail_urban rail rail_electric ship"/>
    <edge id="-380555209" from="3838759531" to="3838759530" priority="4" type="highway.residential" numLanes="1" speed="13.89" disallow="tram rail_urban rail rail_electric ship"/>
    <edge id="-380555211" from="41643039" to="41643038" priority="4" type="highway.residential" numLanes="1" speed="13.89" disallow="tram rail_urban rail rail_electric ship"/>
    <edge id="-380555212#0" from="42428694" to="316507979" priority="4" type="highway.residential" numLanes="1" speed="13.89" shape="5453.23,4265.07 5440.25,4242.90 5432.88,4223.09 5428.70,4202.45" disallow="tram rail_urban rail rail_electric ship"/>
    <edge id="-380555212#1" from="41626558" to="42428694" priority="4" type="highway.residential" numLanes="1" speed="13.89" shape="5564.04,4311.59 5542.32,4310.41 5508.68,4301.95 5483.79,4288.66 5453.23,4265.07" disallow="tram rail_urban rail rail_electric ship"/>
    <edge id="-380555218" from="41664600" to="3838759548" priority="4" type="highway.residential" numLanes="1" speed="13.89" shape="3498.91,3735.13 3481.74,3740.96 3475.76,3748.18 3473.54,3754.60 3477.00,3760.22 3482.70,3762.81 3490.62,3759.34 3496.62,3753.64 3504.53,3746.41" disallow="tram rail_urban rail rail_electric ship"/>
    <edge id="-380557557" from="41642647" to="41642646" priority="4" type="highway.residential" numLanes="1" speed="13.89" disallow="tram rail_urban rail rail_electric ship"/>
    <edge id="-381424955#0" from="41641491" to="41641490" priority="4" type="highway.residential" numLanes="1" speed="13.89" disallow="tram rail_urban rail rail_electric ship"/>
    <edge id="-381424955#1" from="41641492" to="41641491" priority="4" type="highway.residential" numLanes="1" speed="13.89" shape="3515.35,5416.22 3466.90,5448.47 3436.76,5460.84 3411.95,5467.25" disallow="tram rail_urban rail rail_electric ship"/>
    <edge id="-381424955#2" from="41641498" to="41641492" priority="4" type="highway.residential" numLanes="1" speed="13.89" shape="3618.88,5379.51 3590.95,5382.94 3560.67,5391.95 3515.35,5416.22" disallow="tram rail_urban rail rail_electric ship"/>
    <edge id="-381424955#3" from="41641503" to="41641498" priority="4" type="highway.residential" numLanes="1" speed="13.89" shape="3674.00,5378.21 3649.25,5379.23 3618.88,5379.51" disallow="tram rail_urban rail rail_electric ship"/>
    <edge id="-381424955#4" from="41563740" to="41641503" priority="4" type="highway.residential" numLanes="1" speed="13.89" shape="3744.45,5394.27 3724.41,5386.51 3705.19,5381.91 3688.38,5378.88 3674.00,5378.21" disallow="tram rail_urban rail rail_electric ship"/>
    <edge id="-381424960" from="41641490" to="41641489" priority="4" type="highway.residential" numLanes="1" speed="13.89" shape="3346.45,5468.65 3336.64,5470.21 3234.78,5470.15 3216.22,5468.23" disallow="tram rail_urban rail rail_electric ship"/>
    <edge id="-381424962" from="41641489" to="41641490" priority="4" type="highway.residential" numLanes="1" speed="13.89" shape="3216.22,5468.23 3235.21,5463.43 3336.58,5463.26 3346.45,5468.65" disallow="tram rail_urban rail rail_electric ship"/>
    <edge id="-390014441" from="41533548" to="42669900" priority="4" type="highway.residential" numLanes="1" speed="13.89" shape="3860.48,6216.65 3937.74,6218.26 3943.94,6217.94 3952.53,6216.50 3964.24,6213.04 3984.14,6204.91 3995.46,6201.33 4009.83,6197.23" disallow="tram rail_urban rail rail_electric ship"/>
    <edge id="-391846966#0" from="41239562" to="41652107" priority="6" type="highway.tertiary" numLanes="1" speed="22.22" shape="4950.23,4294.76 4924.76,4306.12 4899.27,4314.29 4873.56,4318.61" disallow="tram rail_urban rail rail_electric ship"/>
    <edge id="-391846966#1" from="41652171" to="41239562" priority="6" type="highway.tertiary" numLanes="1" speed="22.22" shape="5162.46,4168.80 5127.18,4174.80 5101.05,4182.07 5073.20,4195.05 5053.34,4208.74 5035.07,4224.66 5019.08,4238.58 4997.06,4259.35 4966.13,4285.07 4950.23,4294.76" disallow="tram rail_urban rail rail_electric ship"/>
    <edge id="-391846966#2" from="41652176" to="41652171" priority="6" type="highway.tertiary" numLanes="1" speed="22.22" shape="5271.27,4204.54 5256.00,4195.14 5227.28,4180.95 5204.85,4174.00 5184.04,4170.21 5162.46,4168.80" disallow="tram rail_urban rail rail_electric ship"/>
    <edge id="-391846966#3" from="41643039" to="41652176" priority="6" type="highway.tertiary" numLanes="1" speed="22.22" shape="5328.66,4259.59 5301.63,4232.32 5271.27,4204.54" disallow="tram rail_urban rail rail_electric ship"/>
    <edge id="-391846966#4" from="41652188" to="41643039" priority="6" type="highway.tertiary" numLanes="1" speed="22.22" shape="5394.32,4322.96 5353.47,4283.34 5328.66,4259.59" disallow="tram rail_urban rail rail_electric ship"/>
    <edge id="-391846966#5" from="41652191" to="41652188" priority="6" type="highway.tertiary" numLanes="1" speed="22.22" shape="5465.53,4376.08 5431.61,4355.03 5415.69,4343.12 5394.32,4322.96" disallow="tram rail_urban rail rail_electric ship"/>
    <edge id="-391846966#6" from="41626563" to="41652191" priority="6" type="highway.tertiary" numLanes="1" speed="22.22" shape="5565.08,4395.37 5537.90,4394.03 5514.39,4389.96 5493.57,4385.38 5465.53,4376.08" disallow="tram rail_urban rail rail_electric ship"/>
    <edge id="-391846966#7" from="5206709905" to="41626563" priority="6" type="highway.tertiary" numLanes="1" speed="22.22" disallow="tram rail_urban rail rail_electric ship"/>
    <edge id="-391847010#0" from="41573831" to="5128224744" priority="7" type="highway.secondary" numLanes="4" speed="20.12" shape="4830.94,5119.45 4833.72,5060.53 4833.71,5056.72 4833.42,4980.17" disallow="tram rail_urban rail rail_electric ship"/>
    <edge id="-391847010#1" from="4346640234" to="41573831" priority="7" type="highway.secondary" numLanes="4" speed="20.12" shape="4831.49,5220.58 4830.95,5141.08 4830.94,5119.45" disallow="tram rail_urban rail rail_electric ship"/>
    <edge id="-436790313" from="4346574990" to="2139420573" priority="7" type="highway.secondary" numLanes="4" speed="20.12" shape="4833.23,4931.56 4833.23,4928.97 4832.99,4867.73" disallow="tram rail_urban rail rail_electric ship"/>
    <edge id="-436799392#0" from="41632074" to="4346640245" priority="7" type="highway.secondary" numLanes="3" speed="27.78" shape="6027.27,6463.64 6227.73,6458.77 6236.47,6458.55 6279.82,6457.45 6292.31,6457.13 6349.76,6455.68" disallow="tram rail_urban rail rail_electric ship"/>
    <edge id="-436799392#1" from="41632076" to="41632074" priority="7" type="highway.secondary" numLanes="3" speed="27.78" disallow="tram rail_urban rail rail_electric ship"/>
    <edge id="-436799392#2" from="41330885" to="41632076" priority="7" type="highway.secondary" numLanes="3" speed="27.78" shape="5524.41,6470.37 5626.76,6469.52 5678.22,6469.10" disallow="tram rail_urban rail rail_electric ship"/>
    <edge id="-436799392#3" from="41245407" to="41330885" priority="7" type="highway.secondary" numLanes="3" speed="27.78" shape="5290.32,6469.25 5302.39,6469.31 5425.84,6469.90 5524.41,6470.37" disallow="tram rail_urban rail rail_electric ship"/>
    <edge id="-436799392#4" from="41606203" to="41245407" priority="7" type="highway.secondary" numLanes="3" speed="27.78" disallow="tram rail_urban rail rail_electric ship"/>
    <edge id="-436799392#5" from="41632082" to="41606203" priority="7" type="highway.secondary" numLanes="3" speed="27.78" disallow="tram rail_urban rail rail_electric ship"/>
    <edge id="-436799392#6" from="4346640248" to="41632082" priority="7" type="highway.secondary" numLanes="3" speed="27.78" shape="4897.53,6471.13 4988.81,6471.30 5032.31,6470.75" disallow="tram rail_urban rail rail_electric ship"/>
    <edge id="-436799394" from="4346640245" to="316546732" priority="7" type="highway.secondary" numLanes="4" speed="27.78" shape="6349.76,6455.68 6384.60,6454.80 6429.75,6453.66" disallow="tram rail_urban rail rail_electric ship"/>
    <edge id="-436799395" from="41573841" to="4346640248" priority="7" type="highway.secondary" numLanes="2" speed="27.78" shape="4824.61,6471.01 4845.82,6471.04 4897.53,6471.13" disallow="tram rail_urban rail rail_electric ship"/>
    <edge id="-436799396" from="4346640247" to="41573841" priority="7" type="highway.secondary" numLanes="3" speed="27.78" shape="4740.26,6471.17 4804.52,6471.04 4824.61,6471.01" disallow="tram rail_urban rail rail_electric ship"/>
    <edge id="-436799410" from="316546732" to="4346640249" priority="7" type="highway.secondary" numLanes="2" speed="27.78" shape="6429.75,6453.66 6430.30,6517.16 6430.44,6533.42" disallow="tram rail_urban rail rail_electric ship"/>
    <edge id="-436799411" from="4346640243" to="316546732" priority="7" type="highway.secondary" numLanes="4" speed="27.78" shape="6429.06,6374.67 6429.13,6382.34 6429.75,6453.66" disallow="tram rail_urban rail rail_electric ship"/>
    <edge id="-436799412#0" from="41638631" to="5047493979" priority="7" type="highway.secondary" numLanes="3" speed="27.78" shape="6427.83,6233.43 6428.13,6268.59 6428.37,6295.63 6428.94,6346.96" disallow="tram rail_urban rail rail_electric ship"/>
    <edge id="-436799412#1" from="41638633" to="41638631" priority="7" type="highway.secondary" numLanes="3" speed="27.78" shape="6425.96,6104.39 6426.61,6149.79 6427.83,6233.43" disallow="tram rail_urban rail rail_electric ship"/>
    <edge id="-436799412#2" from="41638635" to="41638633" priority="7" type="highway.secondary" numLanes="3" speed="27.78" disallow="tram rail_urban rail rail_electric ship"/>
    <edge id="-436799412#3" from="41638637" to="41638635" priority="7" type="highway.secondary" numLanes="3" speed="27.78" disallow="tram rail_urban rail rail_electric ship"/>
    <edge id="-436799412#4" from="41638639" to="41638637" priority="7" type="highway.secondary" numLanes="3" speed="27.78" disallow="tram rail_urban rail rail_electric ship"/>