<?xml version="1.0" encoding="UTF-8"?>

<!-- generated on 6/25/2018 10:57:25 PM by Netedit Version 0.32.0
<?xml version="1.0" encoding="UTF-8"?>

<configuration xmlns:xsi="http://www.w3.org/2001/XMLSchema-instance" xsi:noNamespaceSchemaLocation="http://sumo.dlr.de/xsd/netconvertConfiguration.xsd">

    <input>
        <sumo-net-file value="C:\Users\abeld\Documents\School\Year%202\Project%202-2\Project_2.2\desktop\assets\Intersection\PinaVia.net.xml"/>
    </input>

    <output>
        <output-file value="C:\Users\abeld\Documents\School\Year%202\Project%202-2\Project_2.2\desktop\assets\Intersection\PinaVia.net.xml"/>
        <plain-output-prefix value="C:\Users\abeld\Documents\School\Year%202\Project%202-2\Project_2.2\desktop\assets\Intersection\PinaVia\PinaVia"/>
    </output>

    <processing>
        <no-turnarounds value="true"/>
        <offset.disable-normalization value="true"/>
        <lefthand value="false"/>
        <junctions.corner-detail value="0"/>
        <rectangular-lane-cut value="false"/>
        <walkingareas value="false"/>
    </processing>

</configuration>
-->

<connections version="0.27" xmlns:xsi="http://www.w3.org/2001/XMLSchema-instance" xsi:noNamespaceSchemaLocation="http://sumo.dlr.de/xsd/connections_file.xsd">
    <connection from="gneE1000" to="gneE960" fromLane="0" toLane="0"/>

    <connection from="gneE1001" to="gneE956" fromLane="0" toLane="0"/>

    <connection from="gneE1002" to="gneE962" fromLane="0" toLane="0"/>

    <connection from="gneE1003" to="gneE956" fromLane="0" toLane="0"/>

    <connection from="gneE1004" to="gneE949" fromLane="0" toLane="0"/>

    <connection from="gneE511" to="gneE514" fromLane="0" toLane="0"/>

    <connection from="gneE512" to="gneE530" fromLane="0" toLane="0"/>

    <connection from="gneE513" to="gneE551" fromLane="0" toLane="0"/>

    <connection from="gneE514" to="gneE515" fromLane="0" toLane="0"/>

    <connection from="gneE515" to="gneE516" fromLane="0" toLane="0"/>

    <connection from="gneE516" to="gneE517" fromLane="0" toLane="0"/>

    <connection from="gneE517" to="gneE518" fromLane="0" toLane="0"/>

    <connection from="gneE518" to="gneE519" fromLane="0" toLane="0"/>

    <connection from="gneE519" to="gneE520" fromLane="0" toLane="0"/>

    <connection from="gneE520" to="gneE521" fromLane="0" toLane="0"/>

    <connection from="gneE521" to="gneE522" fromLane="0" toLane="0"/>

    <connection from="gneE522" to="gneE523" fromLane="0" toLane="0"/>

    <connection from="gneE523" to="gneE524" fromLane="0" toLane="0"/>

    <connection from="gneE524" to="gneE525" fromLane="0" toLane="0"/>

    <connection from="gneE525" to="gneE526" fromLane="0" toLane="0"/>

    <connection from="gneE526" to="gneE527" fromLane="0" toLane="0"/>

    <connection from="gneE527" to="gneE528" fromLane="0" toLane="0"/>

    <connection from="gneE528" to="gneE529" fromLane="0" toLane="0"/>

    <connection from="gneE529" to="gneE729" fromLane="0" toLane="0"/>

    <connection from="gneE530" to="gneE531" fromLane="0" toLane="0"/>

    <connection from="gneE531" to="gneE532" fromLane="0" toLane="0"/>

    <connection from="gneE532" to="gneE533" fromLane="0" toLane="0"/>

    <connection from="gneE533" to="gneE534" fromLane="0" toLane="0"/>

    <connection from="gneE534" to="gneE535" fromLane="0" toLane="0"/>

    <connection from="gneE535" to="gneE536" fromLane="0" toLane="0"/>

    <connection from="gneE536" to="gneE537" fromLane="0" toLane="0"/>

    <connection from="gneE537" to="gneE538" fromLane="0" toLane="0"/>

    <connection from="gneE538" to="gneE539" fromLane="0" toLane="0"/>

    <connection from="gneE539" to="gneE540" fromLane="0" toLane="0"/>

    <connection from="gneE540" to="gneE541" fromLane="0" toLane="0"/>

    <connection from="gneE541" to="gneE542" fromLane="0" toLane="0"/>

    <connection from="gneE542" to="gneE543" fromLane="0" toLane="0"/>

    <connection from="gneE543" to="gneE544" fromLane="0" toLane="0"/>

    <connection from="gneE544" to="gneE545" fromLane="0" toLane="0"/>

    <connection from="gneE545" to="gneE546" fromLane="0" toLane="0"/>

    <connection from="gneE546" to="gneE547" fromLane="0" toLane="0"/>

    <connection from="gneE547" to="gneE548" fromLane="0" toLane="0"/>

    <connection from="gneE548" to="gneE549" fromLane="0" toLane="0"/>

    <connection from="gneE549" to="gneE718" fromLane="0" toLane="0"/>

    <connection from="gneE551" to="gneE552" fromLane="0" toLane="0"/>

    <connection from="gneE552" to="gneE553" fromLane="0" toLane="0"/>

    <connection from="gneE553" to="gneE554" fromLane="0" toLane="0"/>

    <connection from="gneE554" to="gneE555" fromLane="0" toLane="0"/>

    <connection from="gneE555" to="gneE556" fromLane="0" toLane="0"/>

    <connection from="gneE556" to="gneE557" fromLane="0" toLane="0"/>

    <connection from="gneE557" to="gneE558" fromLane="0" toLane="0"/>

    <connection from="gneE558" to="gneE559" fromLane="0" toLane="0"/>

    <connection from="gneE559" to="gneE560" fromLane="0" toLane="0"/>

    <connection from="gneE560" to="gneE707" fromLane="0" toLane="0"/>

    <connection from="gneE561" to="gneE564" fromLane="0" toLane="0"/>

    <connection from="gneE562" to="gneE582" fromLane="0" toLane="0"/>

    <connection from="gneE563" to="gneE601" fromLane="0" toLane="0"/>

    <connection from="gneE564" to="gneE565" fromLane="0" toLane="0"/>

    <connection from="gneE565" to="gneE566" fromLane="0" toLane="0"/>

    <connection from="gneE566" to="gneE567" fromLane="0" toLane="0"/>

    <connection from="gneE567" to="gneE568" fromLane="0" toLane="0"/>

    <connection from="gneE568" to="gneE569" fromLane="0" toLane="0"/>

    <connection from="gneE569" to="gneE570" fromLane="0" toLane="0"/>

    <connection from="gneE570" to="gneE571" fromLane="0" toLane="0"/>

    <connection from="gneE571" to="gneE572" fromLane="0" toLane="0"/>

    <connection from="gneE572" to="gneE573" fromLane="0" toLane="0"/>

    <connection from="gneE573" to="gneE574" fromLane="0" toLane="0"/>

    <connection from="gneE574" to="gneE575" fromLane="0" toLane="0"/>

    <connection from="gneE575" to="gneE576" fromLane="0" toLane="0"/>

    <connection from="gneE576" to="gneE577" fromLane="0" toLane="0"/>

    <connection from="gneE577" to="gneE578" fromLane="0" toLane="0"/>

    <connection from="gneE578" to="gneE579" fromLane="0" toLane="0"/>

    <connection from="gneE579" to="gneE580" fromLane="0" toLane="0"/>

    <connection from="gneE580" to="gneE581" fromLane="0" toLane="0"/>

    <connection from="gneE581" to="gneE717" fromLane="0" toLane="0"/>

    <connection from="gneE582" to="gneE583" fromLane="0" toLane="0"/>

    <connection from="gneE583" to="gneE584" fromLane="0" toLane="0"/>

    <connection from="gneE584" to="gneE585" fromLane="0" toLane="0"/>

    <connection from="gneE585" to="gneE586" fromLane="0" toLane="0"/>

    <connection from="gneE586" to="gneE587" fromLane="0" toLane="0"/>

    <connection from="gneE587" to="gneE588" fromLane="0" toLane="0"/>

    <connection from="gneE588" to="gneE589" fromLane="0" toLane="0"/>

    <connection from="gneE589" to="gneE590" fromLane="0" toLane="0"/>

    <connection from="gneE590" to="gneE591" fromLane="0" toLane="0"/>

    <connection from="gneE591" to="gneE592" fromLane="0" toLane="0"/>

    <connection from="gneE592" to="gneE593" fromLane="0" toLane="0"/>

    <connection from="gneE593" to="gneE594" fromLane="0" toLane="0"/>

    <connection from="gneE594" to="gneE595" fromLane="0" toLane="0"/>

    <connection from="gneE595" to="gneE596" fromLane="0" toLane="0"/>

    <connection from="gneE596" to="gneE597" fromLane="0" toLane="0"/>

    <connection from="gneE597" to="gneE598" fromLane="0" toLane="0"/>

    <connection from="gneE598" to="gneE599" fromLane="0" toLane="0"/>

    <connection from="gneE599" to="gneE600" fromLane="0" toLane="0"/>

    <connection from="gneE600" to="gneE728" fromLane="0" toLane="0"/>

    <connection from="gneE601" to="gneE602" fromLane="0" toLane="0"/>

    <connection from="gneE602" to="gneE603" fromLane="0" toLane="0"/>

    <connection from="gneE603" to="gneE604" fromLane="0" toLane="0"/>

    <connection from="gneE604" to="gneE605" fromLane="0" toLane="0"/>

    <connection from="gneE605" to="gneE606" fromLane="0" toLane="0"/>

    <connection from="gneE606" to="gneE607" fromLane="0" toLane="0"/>

    <connection from="gneE607" to="gneE608" fromLane="0" toLane="0"/>

    <connection from="gneE608" to="gneE609" fromLane="0" toLane="0"/>

    <connection from="gneE609" to="gneE610" fromLane="0" toLane="0"/>

    <connection from="gneE610" to="gneE732" fromLane="0" toLane="0"/>

    <connection from="gneE611" to="gneE614" fromLane="0" toLane="0"/>

    <connection from="gneE612" to="gneE628" fromLane="0" toLane="0"/>

    <connection from="gneE613" to="gneE648" fromLane="0" toLane="0"/>

    <connection from="gneE614" to="gneE615" fromLane="0" toLane="0"/>

    <connection from="gneE615" to="gneE616" fromLane="0" toLane="0"/>

    <connection from="gneE616" to="gneE617" fromLane="0" toLane="0"/>

    <connection from="gneE617" to="gneE618" fromLane="0" toLane="0"/>

    <connection from="gneE618" to="gneE619" fromLane="0" toLane="0"/>

    <connection from="gneE619" to="gneE620" fromLane="0" toLane="0"/>

    <connection from="gneE620" to="gneE621" fromLane="0" toLane="0"/>

    <connection from="gneE621" to="gneE622" fromLane="0" toLane="0"/>

    <connection from="gneE622" to="gneE623" fromLane="0" toLane="0"/>

    <connection from="gneE623" to="gneE624" fromLane="0" toLane="0"/>

    <connection from="gneE624" to="gneE625" fromLane="0" toLane="0"/>

    <connection from="gneE625" to="gneE626" fromLane="0" toLane="0"/>

    <connection from="gneE626" to="gneE627" fromLane="0" toLane="0"/>

    <connection from="gneE627" to="gneE726" fromLane="0" toLane="0"/>

    <connection from="gneE628" to="gneE629" fromLane="0" toLane="0"/>

    <connection from="gneE629" to="gneE630" fromLane="0" toLane="0"/>

    <connection from="gneE630" to="gneE631" fromLane="0" toLane="0"/>

    <connection from="gneE631" to="gneE632" fromLane="0" toLane="0"/>

    <connection from="gneE632" to="gneE633" fromLane="0" toLane="0"/>

    <connection from="gneE633" to="gneE634" fromLane="0" toLane="0"/>

    <connection from="gneE634" to="gneE635" fromLane="0" toLane="0"/>

    <connection from="gneE635" to="gneE636" fromLane="0" toLane="0"/>

    <connection from="gneE636" to="gneE637" fromLane="0" toLane="0"/>

    <connection from="gneE637" to="gneE638" fromLane="0" toLane="0"/>

    <connection from="gneE638" to="gneE639" fromLane="0" toLane="0"/>

    <connection from="gneE639" to="gneE640" fromLane="0" toLane="0"/>

    <connection from="gneE640" to="gneE641" fromLane="0" toLane="0"/>

    <connection from="gneE641" to="gneE642" fromLane="0" toLane="0"/>

    <connection from="gneE642" to="gneE643" fromLane="0" toLane="0"/>

    <connection from="gneE643" to="gneE644" fromLane="0" toLane="0"/>

    <connection from="gneE644" to="gneE645" fromLane="0" toLane="0"/>

    <connection from="gneE645" to="gneE646" fromLane="0" toLane="0"/>

    <connection from="gneE646" to="gneE647" fromLane="0" toLane="0"/>

    <connection from="gneE647" to="gneE708" fromLane="0" toLane="0"/>

    <connection from="gneE648" to="gneE649" fromLane="0" toLane="0"/>

    <connection from="gneE649" to="gneE650" fromLane="0" toLane="0"/>

    <connection from="gneE650" to="gneE651" fromLane="0" toLane="0"/>

    <connection from="gneE651" to="gneE652" fromLane="0" toLane="0"/>

    <connection from="gneE652" to="gneE653" fromLane="0" toLane="0"/>

    <connection from="gneE653" to="gneE654" fromLane="0" toLane="0"/>

    <connection from="gneE654" to="gneE655" fromLane="0" toLane="0"/>

    <connection from="gneE655" to="gneE656" fromLane="0" toLane="0"/>

    <connection from="gneE656" to="gneE716" fromLane="0" toLane="0"/>

    <connection from="gneE657" to="gneE660" fromLane="0" toLane="0"/>

    <connection from="gneE658" to="gneE677" fromLane="0" toLane="0"/>

    <connection from="gneE659" to="gneE697" fromLane="0" toLane="0"/>

    <connection from="gneE660" to="gneE661" fromLane="0" toLane="0"/>

    <connection from="gneE661" to="gneE662" fromLane="0" toLane="0"/>

    <connection from="gneE662" to="gneE663" fromLane="0" toLane="0"/>

    <connection from="gneE663" to="gneE664" fromLane="0" toLane="0"/>

    <connection from="gneE664" to="gneE665" fromLane="0" toLane="0"/>

    <connection from="gneE665" to="gneE666" fromLane="0" toLane="0"/>

    <connection from="gneE666" to="gneE667" fromLane="0" toLane="0"/>

    <connection from="gneE667" to="gneE668" fromLane="0" toLane="0"/>

    <connection from="gneE668" to="gneE669" fromLane="0" toLane="0"/>

    <connection from="gneE669" to="gneE670" fromLane="0" toLane="0"/>

    <connection from="gneE670" to="gneE671" fromLane="0" toLane="0"/>

    <connection from="gneE671" to="gneE672" fromLane="0" toLane="0"/>

    <connection from="gneE672" to="gneE673" fromLane="0" toLane="0"/>

    <connection from="gneE673" to="gneE674" fromLane="0" toLane="0"/>

    <connection from="gneE674" to="gneE709" fromLane="0" toLane="0"/>

    <connection from="gneE677" to="gneE678" fromLane="0" toLane="0"/>

    <connection from="gneE678" to="gneE679" fromLane="0" toLane="0"/>

    <connection from="gneE679" to="gneE680" fromLane="0" toLane="0"/>

    <connection from="gneE680" to="gneE681" fromLane="0" toLane="0"/>

    <connection from="gneE681" to="gneE682" fromLane="0" toLane="0"/>

    <connection from="gneE682" to="gneE683" fromLane="0" toLane="0"/>

    <connection from="gneE683" to="gneE684" fromLane="0" toLane="0"/>

    <connection from="gneE684" to="gneE685" fromLane="0" toLane="0"/>

    <connection from="gneE685" to="gneE686" fromLane="0" toLane="0"/>

    <connection from="gneE686" to="gneE687" fromLane="0" toLane="0"/>

    <connection from="gneE687" to="gneE688" fromLane="0" toLane="0"/>

    <connection from="gneE688" to="gneE689" fromLane="0" toLane="0"/>

    <connection from="gneE689" to="gneE690" fromLane="0" toLane="0"/>

    <connection from="gneE690" to="gneE691" fromLane="0" toLane="0"/>

    <connection from="gneE691" to="gneE692" fromLane="0" toLane="0"/>

    <connection from="gneE692" to="gneE693" fromLane="0" toLane="0"/>

    <connection from="gneE693" to="gneE694" fromLane="0" toLane="0"/>

    <connection from="gneE694" to="gneE695" fromLane="0" toLane="0"/>

    <connection from="gneE695" to="gneE696" fromLane="0" toLane="0"/>

    <connection from="gneE696" to="gneE731" fromLane="0" toLane="0"/>

    <connection from="gneE697" to="gneE698" fromLane="0" toLane="0"/>

    <connection from="gneE698" to="gneE699" fromLane="0" toLane="0"/>

    <connection from="gneE699" to="gneE700" fromLane="0" toLane="0"/>

    <connection from="gneE700" to="gneE701" fromLane="0" toLane="0"/>

    <connection from="gneE701" to="gneE702" fromLane="0" toLane="0"/>

    <connection from="gneE702" to="gneE703" fromLane="0" toLane="0"/>

    <connection from="gneE703" to="gneE704" fromLane="0" toLane="0"/>

    <connection from="gneE704" to="gneE705" fromLane="0" toLane="0"/>

    <connection from="gneE705" to="gneE727" fromLane="0" toLane="0"/>

    <connection from="gneE707" to="gneE713" fromLane="0" toLane="0"/>

    <connection from="gneE708" to="gneE715" fromLane="0" toLane="0"/>

    <connection from="gneE710" to="gneE561" fromLane="0" toLane="0"/>

    <connection from="gneE711" to="gneE562" fromLane="0" toLane="0"/>

    <connection from="gneE712" to="gneE563" fromLane="0" toLane="0"/>

    <connection from="gneE713" to="gneE759" fromLane="0" toLane="0"/>
    <connection from="gneE713" to="gneE810" fromLane="0" toLane="0"/>

    <connection from="gneE714" to="gneE812" fromLane="0" toLane="0"/>
    <connection from="gneE714" to="gneE765" fromLane="0" toLane="0"/>
    <connection from="gneE714" to="gneE809" fromLane="0" toLane="0"/>

    <connection from="gneE715" to="gneE808" fromLane="0" toLane="0"/>
    <connection from="gneE715" to="gneE772" fromLane="0" toLane="0"/>

    <connection from="gneE716" to="gneE738" fromLane="0" toLane="0"/>

    <connection from="gneE717" to="gneE737" fromLane="0" toLane="0"/>

    <connection from="gneE718" to="gneE740" fromLane="0" toLane="0"/>

    <connection from="gneE719" to="gneE657" fromLane="0" toLane="0"/>

    <connection from="gneE720" to="gneE658" fromLane="0" toLane="0"/>

    <connection from="gneE721" to="gneE659" fromLane="0" toLane="0"/>

    <connection from="gneE722" to="gneE512" fromLane="0" toLane="0"/>

    <connection from="gneE723" to="gneE511" fromLane="0" toLane="0"/>

    <connection from="gneE724" to="gneE513" fromLane="0" toLane="0"/>

    <connection from="gneE727" to="gneE755" fromLane="0" toLane="0"/>

    <connection from="gneE728" to="gneE754" fromLane="0" toLane="0"/>

    <connection from="gneE729" to="gneE747" fromLane="0" toLane="0"/>

    <connection from="gneE730" to="gneE612" fromLane="0" toLane="0"/>

    <connection from="gneE731" to="gneE749" fromLane="0" toLane="0"/>

    <connection from="gneE732" to="gneE748" fromLane="0" toLane="0"/>

    <connection from="gneE733" to="gneE611" fromLane="0" toLane="0"/>

    <connection from="gneE734" to="gneE613" fromLane="0" toLane="0"/>

    <connection from="gneE737" to="gneE931" fromLane="0" toLane="0"/>
    <connection from="gneE737" to="gneE890" fromLane="0" toLane="0"/>
    <connection from="gneE737" to="gneE923" fromLane="0" toLane="0"/>

    <connection from="gneE738" to="gneE896" fromLane="0" toLane="0"/>
    <connection from="gneE738" to="gneE920" fromLane="0" toLane="0"/>

    <connection from="gneE740" to="gneE930" fromLane="0" toLane="0"/>
    <connection from="gneE740" to="gneE884" fromLane="0" toLane="0"/>

    <connection from="gneE741" to="gneE720" fromLane="0" toLane="0"/>

    <connection from="gneE742" to="gneE719" fromLane="0" toLane="0"/>

    <connection from="gneE743" to="gneE721" fromLane="0" toLane="0"/>

    <connection from="gneE744" to="gneE711" fromLane="0" toLane="0"/>

    <connection from="gneE745" to="gneE710" fromLane="0" toLane="0"/>

    <connection from="gneE747" to="gneE861" fromLane="0" toLane="0"/>
    <connection from="gneE747" to="gneE822" fromLane="0" toLane="0"/>
    <connection from="gneE747" to="gneE860" fromLane="0" toLane="0"/>

    <connection from="gneE748" to="gneE840" fromLane="0" toLane="0"/>
    <connection from="gneE748" to="gneE862" fromLane="0" toLane="0"/>

    <connection from="gneE749" to="gneE859" fromLane="0" toLane="0"/>
    <connection from="gneE749" to="gneE828" fromLane="0" toLane="0"/>

    <connection from="gneE751" to="gneE733" fromLane="0" toLane="0"/>

    <connection from="gneE752" to="gneE734" fromLane="0" toLane="0"/>

    <connection from="gneE753" to="gneE995" fromLane="0" toLane="0"/>
    <connection from="gneE753" to="gneE951" fromLane="0" toLane="0"/>
    <connection from="gneE753" to="gneE996" fromLane="0" toLane="0"/>

    <connection from="gneE754" to="gneE993" fromLane="0" toLane="0"/>
    <connection from="gneE754" to="gneE945" fromLane="0" toLane="0"/>

    <connection from="gneE755" to="gneE957" fromLane="0" toLane="0"/>
    <connection from="gneE755" to="gneE994" fromLane="0" toLane="0"/>

    <connection from="gneE756" to="gneE724" fromLane="0" toLane="0"/>

    <connection from="gneE757" to="gneE722" fromLane="0" toLane="0"/>

    <connection from="gneE758" to="gneE723" fromLane="0" toLane="0"/>

    <connection from="gneE759" to="gneE761" fromLane="0" toLane="0"/>

    <connection from="gneE760" to="gneE762" fromLane="0" toLane="0"/>

    <connection from="gneE761" to="gneE760" fromLane="0" toLane="0"/>
    <connection from="gneE761" to="gneE815" fromLane="0" toLane="0"/>

    <connection from="gneE762" to="gneE763" fromLane="0" toLane="0"/>
    <connection from="gneE762" to="gneE819" fromLane="0" toLane="0"/>

    <connection from="gneE763" to="gneE764" fromLane="0" toLane="0"/>

    <connection from="gneE765" to="gneE766" fromLane="0" toLane="0"/>

    <connection from="gneE766" to="gneE816" fromLane="0" toLane="0"/>
    <connection from="gneE766" to="gneE767" fromLane="0" toLane="0"/>
    <connection from="gneE766" to="gneE814" fromLane="0" toLane="0"/>

    <connection from="gneE767" to="gneE768" fromLane="0" toLane="0"/>

    <connection from="gneE768" to="gneE820" fromLane="0" toLane="0"/>
    <connection from="gneE768" to="gneE769" fromLane="0" toLane="0"/>
    <connection from="gneE768" to="gneE818" fromLane="0" toLane="0"/>

    <connection from="gneE769" to="gneE770" fromLane="0" toLane="0"/>

    <connection from="gneE772" to="gneE773" fromLane="0" toLane="0"/>

    <connection from="gneE773" to="gneE813" fromLane="0" toLane="0"/>
    <connection from="gneE773" to="gneE774" fromLane="0" toLane="0"/>

    <connection from="gneE774" to="gneE775" fromLane="0" toLane="0"/>

    <connection from="gneE775" to="gneE817" fromLane="0" toLane="0"/>
    <connection from="gneE775" to="gneE776" fromLane="0" toLane="0"/>

    <connection from="gneE776" to="gneE777" fromLane="0" toLane="0"/>

    <connection from="gneE778" to="gneE799" fromLane="0" toLane="0"/>
    <connection from="gneE778" to="gneE779" fromLane="0" toLane="0"/>

    <connection from="gneE779" to="gneE780" fromLane="0" toLane="0"/>

    <connection from="gneE780" to="gneE803" fromLane="0" toLane="0"/>
    <connection from="gneE780" to="gneE781" fromLane="0" toLane="0"/>

    <connection from="gneE781" to="gneE782" fromLane="0" toLane="0"/>

    <connection from="gneE782" to="gneE807" fromLane="0" toLane="0"/>
    <connection from="gneE782" to="gneE783" fromLane="0" toLane="0"/>

    <connection from="gneE783" to="gneE745" fromLane="0" toLane="0"/>

    <connection from="gneE784" to="gneE797" fromLane="0" toLane="0"/>
    <connection from="gneE784" to="gneE785" fromLane="0" toLane="0"/>
    <connection from="gneE784" to="gneE798" fromLane="0" toLane="0"/>

    <connection from="gneE785" to="gneE786" fromLane="0" toLane="0"/>

    <connection from="gneE786" to="gneE801" fromLane="0" toLane="0"/>
    <connection from="gneE786" to="gneE787" fromLane="0" toLane="0"/>
    <connection from="gneE786" to="gneE802" fromLane="0" toLane="0"/>

    <connection from="gneE787" to="gneE788" fromLane="0" toLane="0"/>

    <connection from="gneE788" to="gneE805" fromLane="0" toLane="0"/>
    <connection from="gneE788" to="gneE789" fromLane="0" toLane="0"/>
    <connection from="gneE788" to="gneE806" fromLane="0" toLane="0"/>

    <connection from="gneE789" to="gneE744" fromLane="0" toLane="0"/>

    <connection from="gneE790" to="gneE791" fromLane="0" toLane="0"/>
    <connection from="gneE790" to="gneE796" fromLane="0" toLane="0"/>

    <connection from="gneE791" to="gneE792" fromLane="0" toLane="0"/>

    <connection from="gneE792" to="gneE793" fromLane="0" toLane="0"/>
    <connection from="gneE792" to="gneE800" fromLane="0" toLane="0"/>

    <connection from="gneE793" to="gneE794" fromLane="0" toLane="0"/>

    <connection from="gneE794" to="gneE795" fromLane="0" toLane="0"/>
    <connection from="gneE794" to="gneE804" fromLane="0" toLane="0"/>

    <connection from="gneE795" to="gneE746" fromLane="0" toLane="0"/>

    <connection from="gneE796" to="gneE786" fromLane="0" toLane="0"/>

    <connection from="gneE797" to="gneE792" fromLane="0" toLane="0"/>

    <connection from="gneE798" to="gneE780" fromLane="0" toLane="0"/>

    <connection from="gneE799" to="gneE786" fromLane="0" toLane="0"/>

    <connection from="gneE800" to="gneE788" fromLane="0" toLane="0"/>

    <connection from="gneE801" to="gneE794" fromLane="0" toLane="0"/>

    <connection from="gneE802" to="gneE782" fromLane="0" toLane="0"/>

    <connection from="gneE803" to="gneE788" fromLane="0" toLane="0"/>

    <connection from="gneE804" to="gneE744" fromLane="0" toLane="0"/>

    <connection from="gneE805" to="gneE746" fromLane="0" toLane="0"/>

    <connection from="gneE806" to="gneE745" fromLane="0" toLane="0"/>

    <connection from="gneE807" to="gneE744" fromLane="0" toLane="0"/>

    <connection from="gneE808" to="gneE766" fromLane="0" toLane="0"/>

    <connection from="gneE809" to="gneE773" fromLane="0" toLane="0"/>

    <connection from="gneE810" to="gneE766" fromLane="0" toLane="0"/>

    <connection from="gneE812" to="gneE761" fromLane="0" toLane="0"/>

    <connection from="gneE813" to="gneE768" fromLane="0" toLane="0"/>

    <connection from="gneE814" to="gneE775" fromLane="0" toLane="0"/>

    <connection from="gneE816" to="gneE762" fromLane="0" toLane="0"/>

    <connection from="gneE817" to="gneE770" fromLane="0" toLane="0"/>

    <connection from="gneE818" to="gneE777" fromLane="0" toLane="0"/>

    <connection from="gneE819" to="gneE770" fromLane="0" toLane="0"/>

    <connection from="gneE820" to="gneE764" fromLane="0" toLane="0"/>

    <connection from="gneE822" to="gneE823" fromLane="0" toLane="0"/>

    <connection from="gneE823" to="gneE865" fromLane="0" toLane="0"/>
    <connection from="gneE823" to="gneE824" fromLane="0" toLane="0"/>
    <connection from="gneE823" to="gneE864" fromLane="0" toLane="0"/>

    <connection from="gneE824" to="gneE825" fromLane="0" toLane="0"/>

    <connection from="gneE825" to="gneE869" fromLane="0" toLane="0"/>
    <connection from="gneE825" to="gneE826" fromLane="0" toLane="0"/>
    <connection from="gneE825" to="gneE868" fromLane="0" toLane="0"/>

    <connection from="gneE826" to="gneE827" fromLane="0" toLane="0"/>

    <connection from="gneE828" to="gneE829" fromLane="0" toLane="0"/>

    <connection from="gneE829" to="gneE863" fromLane="0" toLane="0"/>
    <connection from="gneE829" to="gneE830" fromLane="0" toLane="0"/>

    <connection from="gneE830" to="gneE831" fromLane="0" toLane="0"/>

    <connection from="gneE831" to="gneE867" fromLane="0" toLane="0"/>
    <connection from="gneE831" to="gneE832" fromLane="0" toLane="0"/>

    <connection from="gneE832" to="gneE833" fromLane="0" toLane="0"/>

    <connection from="gneE834" to="gneE873" fromLane="0" toLane="0"/>
    <connection from="gneE834" to="gneE835" fromLane="0" toLane="0"/>

    <connection from="gneE835" to="gneE836" fromLane="0" toLane="0"/>

    <connection from="gneE836" to="gneE876" fromLane="0" toLane="0"/>
    <connection from="gneE836" to="gneE837" fromLane="0" toLane="0"/>

    <connection from="gneE837" to="gneE838" fromLane="0" toLane="0"/>

    <connection from="gneE838" to="gneE883" fromLane="0" toLane="0"/>
    <connection from="gneE838" to="gneE839" fromLane="0" toLane="0"/>

    <connection from="gneE839" to="gneE751" fromLane="0" toLane="0"/>

    <connection from="gneE840" to="gneE841" fromLane="0" toLane="0"/>

    <connection from="gneE841" to="gneE842" fromLane="0" toLane="0"/>
    <connection from="gneE841" to="gneE866" fromLane="0" toLane="0"/>

    <connection from="gneE842" to="gneE843" fromLane="0" toLane="0"/>

    <connection from="gneE843" to="gneE844" fromLane="0" toLane="0"/>
    <connection from="gneE843" to="gneE870" fromLane="0" toLane="0"/>

    <connection from="gneE844" to="gneE846" fromLane="0" toLane="0"/>

    <connection from="gneE847" to="gneE872" fromLane="0" toLane="0"/>
    <connection from="gneE847" to="gneE848" fromLane="0" toLane="0"/>
    <connection from="gneE847" to="gneE874" fromLane="0" toLane="0"/>

    <connection from="gneE848" to="gneE849" fromLane="0" toLane="0"/>

    <connection from="gneE849" to="gneE877" fromLane="0" toLane="0"/>
    <connection from="gneE849" to="gneE850" fromLane="0" toLane="0"/>
    <connection from="gneE849" to="gneE879" fromLane="0" toLane="0"/>

    <connection from="gneE850" to="gneE851" fromLane="0" toLane="0"/>

    <connection from="gneE851" to="gneE881" fromLane="0" toLane="0"/>
    <connection from="gneE851" to="gneE852" fromLane="0" toLane="0"/>
    <connection from="gneE851" to="gneE882" fromLane="0" toLane="0"/>

    <connection from="gneE852" to="gneE750" fromLane="0" toLane="0"/>

    <connection from="gneE853" to="gneE854" fromLane="0" toLane="0"/>
    <connection from="gneE853" to="gneE871" fromLane="0" toLane="0"/>

    <connection from="gneE854" to="gneE855" fromLane="0" toLane="0"/>

    <connection from="gneE855" to="gneE856" fromLane="0" toLane="0"/>
    <connection from="gneE855" to="gneE875" fromLane="0" toLane="0"/>

    <connection from="gneE856" to="gneE857" fromLane="0" toLane="0"/>

    <connection from="gneE857" to="gneE858" fromLane="0" toLane="0"/>
    <connection from="gneE857" to="gneE880" fromLane="0" toLane="0"/>

    <connection from="gneE858" to="gneE752" fromLane="0" toLane="0"/>

    <connection from="gneE859" to="gneE823" fromLane="0" toLane="0"/>

    <connection from="gneE860" to="gneE829" fromLane="0" toLane="0"/>

    <connection from="gneE861" to="gneE841" fromLane="0" toLane="0"/>

    <connection from="gneE862" to="gneE823" fromLane="0" toLane="0"/>

    <connection from="gneE863" to="gneE825" fromLane="0" toLane="0"/>

    <connection from="gneE864" to="gneE831" fromLane="0" toLane="0"/>

    <connection from="gneE865" to="gneE843" fromLane="0" toLane="0"/>

    <connection from="gneE866" to="gneE825" fromLane="0" toLane="0"/>

    <connection from="gneE867" to="gneE827" fromLane="0" toLane="0"/>

    <connection from="gneE868" to="gneE833" fromLane="0" toLane="0"/>

    <connection from="gneE869" to="gneE846" fromLane="0" toLane="0"/>

    <connection from="gneE870" to="gneE827" fromLane="0" toLane="0"/>

    <connection from="gneE871" to="gneE849" fromLane="0" toLane="0"/>

    <connection from="gneE872" to="gneE855" fromLane="0" toLane="0"/>

    <connection from="gneE873" to="gneE849" fromLane="0" toLane="0"/>

    <connection from="gneE874" to="gneE836" fromLane="0" toLane="0"/>

    <connection from="gneE875" to="gneE851" fromLane="0" toLane="0"/>

    <connection from="gneE876" to="gneE851" fromLane="0" toLane="0"/>

    <connection from="gneE877" to="gneE857" fromLane="0" toLane="0"/>
