<?xml version="1.0" encoding="UTF-8"?>

<!-- generated on 6/25/2018 10:57:25 PM by Netedit Version 0.32.0
<?xml version="1.0" encoding="UTF-8"?>

<configuration xmlns:xsi="http://www.w3.org/2001/XMLSchema-instance" xsi:noNamespaceSchemaLocation="http://sumo.dlr.de/xsd/netconvertConfiguration.xsd">

    <input>
        <sumo-net-file value="C:\Users\abeld\Documents\School\Year%202\Project%202-2\Project_2.2\desktop\assets\Intersection\PinaVia.net.xml"/>
    </input>

    <output>
        <output-file value="C:\Users\abeld\Documents\School\Year%202\Project%202-2\Project_2.2\desktop\assets\Intersection\PinaVia.net.xml"/>
        <plain-output-prefix value="C:\Users\abeld\Documents\School\Year%202\Project%202-2\Project_2.2\desktop\assets\Intersection\PinaVia\PinaVia"/>
    </output>

    <processing>
        <no-turnarounds value="true"/>
        <offset.disable-normalization value="true"/>
        <lefthand value="false"/>
        <junctions.corner-detail value="0"/>
        <rectangular-lane-cut value="false"/>
        <walkingareas value="false"/>
    </processing>

</configuration>
-->

<nodes version="0.27" xmlns:xsi="http://www.w3.org/2001/XMLSchema-instance" xsi:noNamespaceSchemaLocation="http://sumo.dlr.de/xsd/nodes_file.xsd">
    <location netOffset="0.00,0.00" convBoundary="-1410.00,-1650.00,1470.00,1470.00" origBoundary="-10000000000.00,-10000000000.00,10000000000.00,10000000000.00" projParameter="!"/>

    <node id="east-out1" x="1470.00" y="-30.00" type="dead_end"/>
    <node id="east-out2" x="1470.00" y="-40.00" type="dead_end"/>
    <node id="east-out3" x="1470.00" y="-50.00" type="dead_end"/>
    <node id="east1" x="1470.00" y="30.00" type="dead_end"/>
    <node id="east2" x="1470.00" y="40.00" type="dead_end"/>
    <node id="east3" x="1470.00" y="50.00" type="dead_end"/>
    <node id="gneJ315" x="20.00" y="-410.00" type="priority"/>
    <node id="gneJ316" x="20.00" y="-380.00" type="priority"/>
    <node id="gneJ317" x="40.00" y="-410.00" type="priority"/>
    <node id="gneJ318" x="42.66" y="-380.89" type="priority"/>
    <node id="gneJ319" x="60.00" y="-410.00" type="priority"/>
    <node id="gneJ320" x="61.33" y="-381.77" type="priority"/>
    <node id="gneJ321" x="21.33" y="-330.00" type="priority"/>
    <node id="gneJ322" x="27.34" y="-279.56" type="priority"/>
    <node id="gneJ323" x="39.56" y="-238.67" type="priority"/>
    <node id="gneJ324" x="56.46" y="-199.56" type="priority"/>
    <node id="gneJ325" x="90.00" y="-160.00" type="priority"/>
    <node id="gneJ326" x="120.00" y="-120.00" type="priority"/>
    <node id="gneJ327" x="140.00" y="-60.00" type="priority"/>
    <node id="gneJ328" x="140.00" y="-10.00" type="priority"/>
    <node id="gneJ329" x="130.00" y="40.00" type="priority"/>
    <node id="gneJ330" x="110.00" y="90.00" type="priority"/>
    <node id="gneJ331" x="90.00" y="140.00" type="priority"/>
    <node id="gneJ332" x="70.00" y="190.00" type="priority"/>
    <node id="gneJ333" x="60.00" y="240.00" type="priority"/>
    <node id="gneJ334" x="50.00" y="300.00" type="priority"/>
    <node id="gneJ335" x="45.13" y="364.43" type="priority"/>
    <node id="gneJ336" x="50.00" y="410.00" type="priority"/>
    <node id="gneJ337" x="47.79" y="-330.44" type="priority"/>
    <node id="gneJ338" x="58.67" y="-279.56" type="priority"/>
    <node id="gneJ339" x="79.11" y="-219.11" type="priority"/>
    <node id="gneJ340" x="107.34" y="-176.90" type="priority"/>
    <node id="gneJ341" x="137.79" y="-137.79" type="priority"/>
    <node id="gneJ342" x="160.00" y="-90.00" type="priority"/>
    <node id="gneJ343" x="171.33" y="-40.00" type="priority"/>
    <node id="gneJ344" x="171.33" y="4.25" type="priority"/>
    <node id="gneJ345" x="159.11" y="47.79" type="priority"/>
    <node id="gneJ346" x="140.00" y="80.00" type="priority"/>
    <node id="gneJ347" x="120.00" y="100.00" type="priority"/>
    <node id="gneJ348" x="80.00" y="120.00" type="priority"/>
    <node id="gneJ349" x="10.00" y="120.00" type="priority"/>
    <node id="gneJ350" x="-30.00" y="110.00" type="priority"/>
    <node id="gneJ351" x="-70.00" y="90.00" type="priority"/>
    <node id="gneJ352" x="-140.00" y="60.00" type="priority"/>
    <node id="gneJ353" x="-192.83" y="46.46" type="priority"/>
    <node id="gneJ354" x="-249.65" y="35.57" type="priority"/>
    <node id="gneJ355" x="-317.17" y="28.67" type="priority"/>
    <node id="gneJ356" x="-408.54" y="27.57" type="priority"/>
    <node id="gneJ359" x="67.79" y="-330.89" type="priority"/>
    <node id="gneJ360" x="80.00" y="-280.00" type="priority"/>
    <node id="gneJ361" x="100.00" y="-230.00" type="priority"/>
    <node id="gneJ362" x="130.00" y="-180.00" type="priority"/>
    <node id="gneJ363" x="166.90" y="-136.02" type="priority"/>
    <node id="gneJ364" x="206.90" y="-106.46" type="priority"/>
    <node id="gneJ365" x="242.21" y="-85.13" type="priority"/>
    <node id="gneJ366" x="290.00" y="-67.79" type="priority"/>
    <node id="gneJ367" x="330.00" y="-60.00" type="priority"/>
    <node id="gneJ368" x="406.59" y="-56.60" type="priority"/>
    <node id="gneJ369" x="420.00" y="20.00" type="priority"/>
    <node id="gneJ370" x="390.00" y="20.00" type="priority"/>
    <node id="gneJ371" x="420.00" y="40.00" type="priority"/>
    <node id="gneJ372" x="386.11" y="42.92" type="priority"/>
    <node id="gneJ373" x="420.00" y="60.00" type="priority"/>
    <node id="gneJ374" x="390.00" y="61.46" type="priority"/>
    <node id="gneJ375" x="350.00" y="20.00" type="priority"/>
    <node id="gneJ376" x="287.97" y="26.46" type="priority"/>
    <node id="gneJ377" x="253.54" y="36.46" type="priority"/>
    <node id="gneJ378" x="220.00" y="50.00" type="priority"/>
    <node id="gneJ379" x="190.00" y="70.00" type="priority"/>
    <node id="gneJ380" x="170.00" y="90.00" type="priority"/>
    <node id="gneJ381" x="140.00" y="110.00" type="priority"/>
    <node id="gneJ382" x="109.11" y="128.23" type="priority"/>
    <node id="gneJ383" x="70.00" y="138.67" type="priority"/>
    <node id="gneJ384" x="25.05" y="141.77" type="priority"/>
    <node id="gneJ385" x="-14.95" y="135.31" type="priority"/>
    <node id="gneJ386" x="-60.00" y="120.00" type="priority"/>
    <node id="gneJ387" x="-100.00" y="100.00" type="priority"/>
    <node id="gneJ388" x="-140.00" y="80.00" type="priority"/>
    <node id="gneJ389" x="-180.00" y="70.00" type="priority"/>
    <node id="gneJ390" x="-230.00" y="60.00" type="priority"/>
    <node id="gneJ391" x="-290.00" y="50.00" type="priority"/>
    <node id="gneJ392" x="-409.03" y="45.13" type="priority"/>
    <node id="gneJ393" x="336.90" y="47.79" type="priority"/>
    <node id="gneJ394" x="290.44" y="57.79" type="priority"/>
    <node id="gneJ395" x="250.00" y="70.00" type="priority"/>
    <node id="gneJ396" x="210.00" y="90.00" type="priority"/>
    <node id="gneJ397" x="170.00" y="120.00" type="priority"/>
    <node id="gneJ398" x="140.00" y="140.00" type="priority"/>
    <node id="gneJ399" x="100.00" y="160.00" type="priority"/>
    <node id="gneJ400" x="62.92" y="170.89" type="priority"/>
    <node id="gneJ401" x="0.89" y="172.66" type="priority"/>
    <node id="gneJ402" x="-55.57" y="152.21" type="priority"/>
    <node id="gneJ403" x="-100.00" y="111.33" type="priority"/>
    <node id="gneJ404" x="-116.90" y="57.97" type="priority"/>
    <node id="gneJ405" x="-110.00" y="0.00" type="priority"/>
    <node id="gneJ406" x="-90.00" y="-60.00" type="priority"/>
    <node id="gneJ407" x="-70.00" y="-100.00" type="priority"/>
    <node id="gneJ408" x="-40.00" y="-180.00" type="priority"/>
    <node id="gneJ409" x="-30.00" y="-220.00" type="priority"/>
    <node id="gneJ410" x="-23.54" y="-281.77" type="priority"/>
    <node id="gneJ411" x="-17.08" y="-410.49" type="priority"/>
    <node id="gneJ412" x="340.00" y="70.00" type="priority"/>
    <node id="gneJ413" x="290.00" y="80.00" type="priority"/>
    <node id="gneJ414" x="260.00" y="90.00" type="priority"/>
    <node id="gneJ415" x="220.00" y="110.00" type="priority"/>
    <node id="gneJ416" x="190.00" y="130.00" type="priority"/>
    <node id="gneJ417" x="150.00" y="160.00" type="priority"/>
    <node id="gneJ418" x="100.00" y="230.00" type="priority"/>
    <node id="gneJ419" x="77.79" y="278.67" type="priority"/>
    <node id="gneJ420" x="64.24" y="361.33" type="priority"/>
    <node id="gneJ421" x="70.00" y="410.00" type="priority"/>
    <node id="gneJ422" x="-10.00" y="410.00" type="priority"/>
    <node id="gneJ423" x="-13.10" y="379.56" type="priority"/>
    <node id="gneJ424" x="-30.00" y="410.00" type="priority"/>
    <node id="gneJ425" x="-36.64" y="380.00" type="priority"/>
    <node id="gneJ426" x="-50.00" y="410.00" type="priority"/>
    <node id="gneJ427" x="-54.95" y="379.07" type="priority"/>
    <node id="gneJ428" x="-20.00" y="290.00" type="priority"/>
    <node id="gneJ429" x="-30.00" y="250.00" type="priority"/>
    <node id="gneJ430" x="-50.00" y="210.00" type="priority"/>
    <node id="gneJ431" x="-80.00" y="170.00" type="priority"/>
    <node id="gneJ432" x="-120.00" y="110.00" type="priority"/>
    <node id="gneJ433" x="-130.00" y="80.00" type="priority"/>
    <node id="gneJ434" x="-133.89" y="16.11" type="priority"/>
    <node id="gneJ435" x="-122.21" y="-40.00" type="priority"/>
    <node id="gneJ436" x="-96.20" y="-92.48" type="priority"/>
    <node id="gneJ437" x="-66.02" y="-171.77" type="priority"/>
    <node id="gneJ438" x="-56.90" y="-208.67" type="priority"/>
    <node id="gneJ439" x="-46.90" y="-261.77" type="priority"/>
    <node id="gneJ440" x="-41.77" y="-311.33" type="priority"/>
    <node id="gneJ441" x="-37.08" y="-410.00" type="priority"/>
    <node id="gneJ442" x="-46.90" y="311.95" type="priority"/>
    <node id="gneJ443" x="-58.23" y="263.10" type="priority"/>
    <node id="gneJ444" x="-80.00" y="210.00" type="priority"/>
    <node id="gneJ445" x="-120.00" y="160.00" type="priority"/>
    <node id="gneJ446" x="-150.00" y="110.00" type="priority"/>
    <node id="gneJ447" x="-160.00" y="80.00" type="priority"/>
    <node id="gneJ448" x="-168.23" y="30.00" type="priority"/>
    <node id="gneJ449" x="-160.00" y="-20.00" type="priority"/>
    <node id="gneJ450" x="-140.00" y="-60.00" type="priority"/>
    <node id="gneJ451" x="-100.00" y="-100.00" type="priority"/>
    <node id="gneJ452" x="-49.56" y="-116.02" type="priority"/>
    <node id="gneJ453" x="10.00" y="-110.00" type="priority"/>
    <node id="gneJ454" x="70.00" y="-90.00" type="priority"/>
    <node id="gneJ455" x="110.00" y="-70.00" type="priority"/>
    <node id="gneJ456" x="160.00" y="-50.00" type="priority"/>
    <node id="gneJ457" x="200.00" y="-40.00" type="priority"/>
    <node id="gneJ458" x="250.00" y="-30.00" type="priority"/>
    <node id="gneJ459" x="310.00" y="-20.00" type="priority"/>
    <node id="gneJ460" x="370.00" y="-20.00" type="priority"/>
    <node id="gneJ461" x="410.00" y="-20.00" type="priority"/>
    <node id="gneJ462" x="-70.00" y="300.00" type="priority"/>
    <node id="gneJ463" x="-89.11" y="248.23" type="priority"/>
    <node id="gneJ464" x="-117.17" y="193.72" type="priority"/>
    <node id="gneJ465" x="-154.95" y="147.08" type="priority"/>
    <node id="gneJ466" x="-207.34" y="108.67" type="priority"/>
    <node id="gneJ467" x="-247.79" y="87.79" type="priority"/>
    <node id="gneJ468" x="-281.33" y="75.57" type="priority"/>
    <node id="gneJ469" x="-347.26" y="65.62" type="priority"/>
    <node id="gneJ470" x="-409.51" y="64.65" type="priority"/>
    <node id="gneJ471" x="-410.00" y="-10.00" type="priority"/>
    <node id="gneJ472" x="-372.21" y="-13.10" type="priority"/>
    <node id="gneJ473" x="-410.00" y="-30.00" type="priority"/>
    <node id="gneJ474" x="-372.66" y="-36.64" type="priority"/>
    <node id="gneJ475" x="-410.00" y="-50.00" type="priority"/>
    <node id="gneJ476" x="-373.54" y="-55.75" type="priority"/>
    <node id="gneJ477" x="-290.00" y="-20.00" type="priority"/>
    <node id="gneJ478" x="-240.00" y="-30.00" type="priority"/>
    <node id="gneJ479" x="-220.00" y="-40.00" type="priority"/>
    <node id="gneJ480" x="-190.00" y="-60.00" type="priority"/>
    <node id="gneJ481" x="-150.00" y="-90.00" type="priority"/>
    <node id="gneJ482" x="-110.00" y="-120.00" type="priority"/>
    <node id="gneJ483" x="-70.00" y="-130.00" type="priority"/>
    <node id="gneJ484" x="10.00" y="-130.00" type="priority"/>
    <node id="gneJ485" x="50.00" y="-120.00" type="priority"/>
    <node id="gneJ486" x="90.00" y="-100.00" type="priority"/>
    <node id="gneJ487" x="150.00" y="-80.00" type="priority"/>
    <node id="gneJ488" x="200.00" y="-60.00" type="priority"/>
    <node id="gneJ489" x="260.00" y="-50.00" type="priority"/>
    <node id="gneJ490" x="320.00" y="-40.00" type="priority"/>
    <node id="gneJ491" x="408.05" y="-37.57" type="priority"/>
    <node id="gneJ494" x="-290.00" y="-50.00" type="priority"/>
    <node id="gneJ495" x="-250.00" y="-60.00" type="priority"/>
    <node id="gneJ496" x="-210.00" y="-80.00" type="priority"/>
    <node id="gneJ497" x="-180.00" y="-100.00" type="priority"/>
    <node id="gneJ498" x="-140.00" y="-130.00" type="priority"/>
    <node id="gneJ499" x="-100.00" y="-150.00" type="priority"/>
    <node id="gneJ500" x="-60.00" y="-160.00" type="priority"/>
    <node id="gneJ501" x="-10.00" y="-170.00" type="priority"/>
    <node id="gneJ502" x="30.00" y="-160.00" type="priority"/>
    <node id="gneJ503" x="70.00" y="-140.00" type="priority"/>
    <node id="gneJ504" x="100.00" y="-110.00" type="priority"/>
    <node id="gneJ505" x="120.00" y="-60.00" type="priority"/>
    <node id="gneJ506" x="120.00" y="0.00" type="priority"/>
    <node id="gneJ507" x="100.00" y="60.00" type="priority"/>
    <node id="gneJ508" x="80.00" y="100.00" type="priority"/>
    <node id="gneJ509" x="60.00" y="150.00" type="priority"/>
    <node id="gneJ510" x="50.00" y="190.00" type="priority"/>
    <node id="gneJ511" x="40.00" y="230.00" type="priority"/>
    <node id="gneJ512" x="30.00" y="300.18" type="priority"/>
    <node id="gneJ513" x="26.11" y="407.08" type="priority"/>
    <node id="gneJ514" x="-301.77" y="-66.90" type="priority"/>
    <node id="gneJ515" x="-242.21" y="-85.57" type="priority"/>
    <node id="gneJ516" x="-200.00" y="-110.00" type="priority"/>
    <node id="gneJ517" x="-158.23" y="-138.67" type="priority"/>
    <node id="gneJ518" x="-130.00" y="-170.00" type="priority"/>
    <node id="gneJ519" x="-100.00" y="-210.00" type="priority"/>
    <node id="gneJ520" x="-75.13" y="-263.28" type="priority"/>
    <node id="gneJ521" x="-59.11" y="-332.39" type="priority"/>
    <node id="gneJ522" x="-57.08" y="-410.00" type="priority"/>
    <node id="gneJ524" x="490.00" y="-50.00" type="priority"/>
    <node id="gneJ525" x="490.00" y="-30.00" type="priority"/>
    <node id="gneJ526" x="490.00" y="-40.00" type="dead_end"/>
    <node id="gneJ527" x="490.00" y="30.00" type="priority"/>
    <node id="gneJ528" x="490.00" y="40.00" type="priority"/>
    <node id="gneJ529" x="490.00" y="50.00" type="dead_end"/>
    <node id="gneJ530" x="1050.00" y="-50.00" type="priority"/>
    <node id="gneJ531" x="490.00" y="-40.00" type="dead_end"/>
    <node id="gneJ532" x="1050.00" y="-40.00" type="priority"/>
    <node id="gneJ533" x="1050.00" y="-30.00" type="priority"/>
    <node id="gneJ534" x="-490.00" y="60.00" type="priority"/>
    <node id="gneJ535" x="-490.00" y="50.00" type="priority"/>
    <node id="gneJ536" x="-490.00" y="40.00" type="priority"/>
    <node id="gneJ537" x="-490.00" y="-20.00" type="priority"/>
    <node id="gneJ538" x="-490.00" y="-30.00" type="priority"/>
    <node id="gneJ539" x="-490.00" y="-40.00" type="priority"/>
    <node id="gneJ540" x="40.00" y="-490.00" type="priority"/>
    <node id="gneJ541" x="30.00" y="-490.00" type="priority"/>
    <node id="gneJ542" x="50.00" y="-490.00" type="priority"/>
    <node id="gneJ545" x="-40.00" y="-490.00" type="dead_end"/>
    <node id="gneJ546" x="-50.00" y="-490.00" type="priority"/>
    <node id="gneJ547" x="-30.00" y="-490.00" type="priority"/>
    <node id="gneJ548" x="50.00" y="490.00" type="priority"/>
    <node id="gneJ549" x="-30.00" y="490.00" type="dead_end"/>
    <node id="gneJ550" x="40.00" y="490.00" type="priority"/>
    <node id="gneJ551" x="60.00" y="490.00" type="priority"/>
    <node id="gneJ552" x="-20.00" y="490.00" type="priority"/>
    <node id="gneJ553" x="-40.00" y="490.00" type="priority"/>
    <node id="gneJ558" x="-990.00" y="50.00" type="priority"/>
    <node id="gneJ559" x="-990.00" y="60.00" type="priority"/>
    <node id="gneJ562" x="-990.00" y="40.00" type="priority"/>
    <node id="gneJ563" x="-990.00" y="-30.00" type="priority"/>
    <node id="gneJ564" x="-990.00" y="-20.00" type="priority"/>
    <node id="gneJ565" x="-990.00" y="-40.00" type="priority"/>
    <node id="gneJ566" x="1050.00" y="40.00" type="priority"/>
    <node id="gneJ567" x="1050.00" y="30.00" type="priority"/>
    <node id="gneJ568" x="1050.00" y="50.00" type="priority"/>
    <node id="gneJ569" x="490.00" y="50.00" type="dead_end"/>
    <node id="gneJ570" x="50.00" y="1050.00" type="priority"/>
    <node id="gneJ571" x="60.00" y="1050.00" type="priority"/>
    <node id="gneJ572" x="40.00" y="1050.00" type="priority"/>
    <node id="gneJ573" x="-30.00" y="1050.00" type="priority"/>
    <node id="gneJ574" x="-30.00" y="490.00" type="dead_end"/>
    <node id="gneJ575" x="-20.00" y="1050.00" type="priority"/>
    <node id="gneJ576" x="-40.00" y="1050.00" type="priority"/>
    <node id="gneJ577" x="-40.00" y="-490.00" type="dead_end"/>
    <node id="gneJ578" x="-40.00" y="-1230.00" type="priority"/>
    <node id="gneJ579" x="-30.00" y="-1230.00" type="priority"/>
    <node id="gneJ580" x="-50.00" y="-1230.00" type="priority"/>
    <node id="gneJ581" x="50.00" y="-1230.00" type="priority"/>
    <node id="gneJ582" x="40.00" y="-1230.00" type="priority"/>
    <node id="gneJ583" x="30.00" y="-1230.00" type="priority"/>
    <node id="gneJ584" x="1120.00" y="-50.00" type="priority"/>
    <node id="gneJ585" x="1200.00" y="-50.00" type="priority"/>
    <node id="gneJ586" x="1270.00" y="-50.00" type="priority"/>
    <node id="gneJ587" x="1350.00" y="-50.00" type="priority"/>
    <node id="gneJ588" x="1420.00" y="-50.00" type="priority"/>
    <node id="gneJ590" x="1120.00" y="-40.00" type="priority"/>
    <node id="gneJ591" x="1200.00" y="-40.00" type="priority"/>
    <node id="gneJ592" x="1270.00" y="-40.00" type="priority"/>
    <node id="gneJ593" x="1350.00" y="-40.00" type="priority"/>
    <node id="gneJ594" x="1420.00" y="-40.00" type="priority"/>
    <node id="gneJ596" x="1120.00" y="-30.00" type="priority"/>
    <node id="gneJ597" x="1200.00" y="-30.00" type="priority"/>
    <node id="gneJ598" x="1270.00" y="-30.00" type="priority"/>
    <node id="gneJ599" x="1350.00" y="-30.00" type="priority"/>
    <node id="gneJ600" x="1420.00" y="-30.00" type="priority"/>
    <node id="gneJ603" x="1420.00" y="30.00" type="priority"/>
    <node id="gneJ604" x="1350.00" y="30.00" type="priority"/>
    <node id="gneJ605" x="1270.00" y="30.00" type="priority"/>
    <node id="gneJ606" x="1200.00" y="30.00" type="priority"/>
    <node id="gneJ607" x="1120.00" y="30.00" type="priority"/>
    <node id="gneJ609" x="1420.00" y="40.00" type="priority"/>
    <node id="gneJ610" x="1350.00" y="40.00" type="priority"/>
    <node id="gneJ611" x="1270.00" y="40.00" type="priority"/>
    <node id="gneJ612" x="1200.00" y="40.00" type="priority"/>
    <node id="gneJ613" x="1120.00" y="40.00" type="priority"/>
    <node id="gneJ615" x="1420.00" y="50.00" type="priority"/>
    <node id="gneJ616" x="1350.00" y="50.00" type="priority"/>
    <node id="gneJ617" x="1270.00" y="50.00" type="priority"/>
    <node id="gneJ618" x="1200.00" y="50.00" type="priority"/>
    <node id="gneJ619" x="1120.00" y="50.00" type="priority"/>
    <node id="gneJ620" x="1270.00" y="-40.00" type="dead_end"/>
    <node id="gneJ623" x="50.00" y="1120.00" type="priority"/>
    <node id="gneJ624" x="50.00" y="1200.00" type="priority"/>
    <node id="gneJ625" x="50.00" y="1270.00" type="priority"/>
    <node id="gneJ626" x="50.00" y="1350.00" type="priority"/>
    <node id="gneJ627" x="50.00" y="1420.00" type="priority"/>
    <node id="gneJ629" x="40.00" y="1120.00" type="priority"/>
    <node id="gneJ630" x="40.00" y="1200.00" type="priority"/>
    <node id="gneJ631" x="40.00" y="1270.00" type="priority"/>
    <node id="gneJ632" x="40.00" y="1350.00" type="priority"/>
    <node id="gneJ633" x="40.00" y="1420.00" type="priority"/>
    <node id="gneJ636" x="-20.00" y="1420.00" type="priority"/>
    <node id="gneJ637" x="-20.00" y="1350.00" type="priority"/>
    <node id="gneJ638" x="-20.00" y="1270.00" type="priority"/>
    <node id="gneJ639" x="-20.00" y="1200.00" type="priority"/>
    <node id="gneJ640" x="-20.00" y="1120.00" type="priority"/>
    <node id="gneJ641" x="60.00" y="1120.00" type="priority"/>
    <node id="gneJ642" x="60.00" y="1200.00" type="priority"/>
    <node id="gneJ643" x="60.00" y="1270.00" type="priority"/>
    <node id="gneJ644" x="60.00" y="1350.00" type="priority"/>
    <node id="gneJ645" x="60.00" y="1420.00" type="priority"/>
    <node id="gneJ650" x="-30.00" y="1420.00" type="priority"/>
    <node id="gneJ651" x="-30.00" y="1350.00" type="priority"/>
    <node id="gneJ652" x="-30.00" y="1270.00" type="priority"/>
    <node id="gneJ653" x="-30.00" y="1200.00" type="priority"/>
    <node id="gneJ654" x="-30.00" y="1120.00" type="priority"/>
    <node id="gneJ656" x="-40.00" y="1420.00" type="priority"/>
    <node id="gneJ657" x="-40.00" y="1350.00" type="priority"/>
    <node id="gneJ658" x="-40.00" y="1270.00" type="priority"/>
    <node id="gneJ659" x="-40.00" y="1200.00" type="priority"/>
    <node id="gneJ660" x="-40.00" y="1120.00" type="priority"/>
    <node id="gneJ663" x="-1060.00" y="40.00" type="priority"/>
    <node id="gneJ664" x="-1140.00" y="40.00" type="priority"/>
    <node id="gneJ665" x="-1210.00" y="40.00" type="priority"/>
    <node id="gneJ666" x="-1290.00" y="40.00" type="priority"/>
    <node id="gneJ667" x="-1360.00" y="40.00" type="priority"/>
    <node id="gneJ669" x="-1060.00" y="50.00" type="priority"/>
    <node id="gneJ670" x="-1140.00" y="50.00" type="priority"/>
    <node id="gneJ671" x="-1210.00" y="50.00" type="priority"/>
    <node id="gneJ672" x="-1290.00" y="50.00" type="priority"/>
    <node id="gneJ673" x="-1360.00" y="50.00" type="priority"/>
    <node id="gneJ675" x="-1060.00" y="60.00" type="priority"/>
    <node id="gneJ676" x="-1140.00" y="60.00" type="priority"/>
    <node id="gneJ677" x="-1210.00" y="60.00" type="priority"/>
    <node id="gneJ678" x="-1290.00" y="60.00" type="priority"/>
    <node id="gneJ679" x="-1360.00" y="60.00" type="priority"/>
    <node id="gneJ682" x="-1360.00" y="-20.00" type="priority"/>
    <node id="gneJ683" x="-1290.00" y="-20.00" type="priority"/>
    <node id="gneJ684" x="-1210.00" y="-20.00" type="priority"/>
    <node id="gneJ685" x="-1140.00" y="-20.00" type="priority"/>
    <node id="gneJ686" x="-1060.00" y="-20.00" type="priority"/>
    <node id="gneJ688" x="-1360.00" y="-30.00" type="priority"/>
    <node id="gneJ689" x="-1290.00" y="-30.00" type="priority"/>
    <node id="gneJ690" x="-1210.00" y="-30.00" type="priority"/>
    <node id="gneJ691" x="-1140.00" y="-30.00" type="priority"/>
    <node id="gneJ692" x="-1060.00" y="-30.00" type="priority"/>
    <node id="gneJ694" x="-1360.00" y="-40.00" type="priority"/>
    <node id="gneJ695" x="-1290.00" y="-40.00" type="priority"/>
    <node id="gneJ696" x="-1210.00" y="-40.00" type="priority"/>
    <node id="gneJ697" x="-1140.00" y="-40.00" type="priority"/>
    <node id="gneJ698" x="-1060.00" y="-40.00" type="priority"/>
    <node id="gneJ700" x="-1140.00" y="-20.00" type="dead_end"/>
    <node id="gneJ701" x="-30.00" y="-1300.00" type="priority"/>
    <node id="gneJ702" x="-30.00" y="-1380.00" type="priority"/>
    <node id="gneJ703" x="-30.00" y="-1450.00" type="priority"/>
    <node id="gneJ704" x="-30.00" y="-1530.00" type="priority"/>
    <node id="gneJ705" x="-30.00" y="-1600.00" type="priority"/>
    <node id="gneJ707" x="-40.00" y="-1300.00" type="priority"/>
    <node id="gneJ708" x="-40.00" y="-1380.00" type="priority"/>
    <node id="gneJ709" x="-40.00" y="-1450.00" type="priority"/>
    <node id="gneJ710" x="-40.00" y="-1530.00" type="priority"/>
    <node id="gneJ711" x="-40.00" y="-1600.00" type="priority"/>
    <node id="gneJ713" x="-50.00" y="-1300.00" type="priority"/>
    <node id="gneJ714" x="-50.00" y="-1380.00" type="priority"/>
    <node id="gneJ715" x="-50.00" y="-1450.00" type="priority"/>
    <node id="gneJ716" x="-50.00" y="-1530.00" type="priority"/>
    <node id="gneJ717" x="-50.00" y="-1600.00" type="priority"/>
    <node id="gneJ720" x="30.00" y="-1600.00" type="priority"/>
    <node id="gneJ721" x="30.00" y="-1530.00" type="priority"/>
    <node id="gneJ722" x="30.00" y="-1450.00" type="priority"/>
    <node id="gneJ723" x="30.00" y="-1380.00" type="priority"/>
    <node id="gneJ724" x="30.00" y="-1300.00" type="priority"/>
    <node id="gneJ726" x="40.00" y="-1600.00" type="priority"/>
    <node id="gneJ727" x="40.00" y="-1530.00" type="priority"/>
    <node id="gneJ728" x="40.00" y="-1450.00" type="priority"/>
    <node id="gneJ729" x="40.00" y="-1380.00" type="priority"/>
    <node id="gneJ730" x="40.00" y="-1300.00" type="priority"/>
    <node id="gneJ732" x="50.00" y="-1600.00" type="priority"/>
    <node id="gneJ733" x="50.00" y="-1530.00" type="priority"/>
    <node id="gneJ734" x="50.00" y="-1450.00" type="priority"/>
    <node id="gneJ735" x="50.00" y="-1380.00" type="priority"/>
    <node id="gneJ736" x="50.00" y="-1300.00" type="priority"/>
    <node id="north-out1" x="40.00" y="1470.00" type="dead_end"/>
    <node id="north-out2" x="50.00" y="1470.00" type="dead_end"/>
    <node id="north-out3" x="60.00" y="1470.00" type="dead_end"/>
    <node id="north1" x="-20.00" y="1470.00" type="dead_end"/>
    <node id="north2" x="-30.00" y="1470.00" type="dead_end"/>
    <node id="north3" x="-40.00" y="1470.00" type="dead_end"/>
    <node id="south-out1" x="-30.00" y="-1650.00" type="dead_end"/>
    <node id="south-out2" x="-40.00" y="-1650.00" type="dead_end"/>
    <node id="south-out3" x="-50.00" y="-1650.00" type="dead_end"/>
    <node id="south1" x="30.00" y="-1650.00" type="dead_end"/>
    <node id="south2" x="40.00" y="-1650.00" type="dead_end"/>
    <node id="south3" x="50.00" y="-1650.00" type="dead_end"/>
    <node id="west-out1" x="-1410.00" y="40.00" type="dead_end"/>
    <node id="west-out2" x="-1410.00" y="50.00" type="dead_end"/>
    <node id="west-out3" x="-1410.00" y="60.00" type="dead_end"/>
    <node id="west1" x="-1410.00" y="-20.00" type="dead_end"/>
    <node id="west2" x="-1410.00" y="-30.00" type="dead_end"/>
    <node id="west3" x="-1410.00" y="-40.00" type="dead_end"/>
</nodes>
