<?xml version="1.0" encoding="UTF-8"?>

<!-- generated on 6/25/2018 10:57:25 PM by Netedit Version 0.32.0
<?xml version="1.0" encoding="UTF-8"?>

<configuration xmlns:xsi="http://www.w3.org/2001/XMLSchema-instance" xsi:noNamespaceSchemaLocation="http://sumo.dlr.de/xsd/netconvertConfiguration.xsd">

    <input>
        <sumo-net-file value="C:\Users\abeld\Documents\School\Year%202\Project%202-2\Project_2.2\desktop\assets\Intersection\PinaVia.net.xml"/>
    </input>

    <output>
        <output-file value="C:\Users\abeld\Documents\School\Year%202\Project%202-2\Project_2.2\desktop\assets\Intersection\PinaVia.net.xml"/>
        <plain-output-prefix value="C:\Users\abeld\Documents\School\Year%202\Project%202-2\Project_2.2\desktop\assets\Intersection\PinaVia\PinaVia"/>
    </output>

    <processing>
        <no-turnarounds value="true"/>
        <offset.disable-normalization value="true"/>
        <lefthand value="false"/>
        <junctions.corner-detail value="0"/>
        <rectangular-lane-cut value="false"/>
        <walkingareas value="false"/>
    </processing>

</configuration>
-->

<edges version="0.27" xmlns:xsi="http://www.w3.org/2001/XMLSchema-instance" xsi:noNamespaceSchemaLocation="http://sumo.dlr.de/xsd/edges_file.xsd">
    <edge id="gneE1000" from="gneJ708" to="gneJ715" priority="1" numLanes="1" speed="13.89"/>
    <edge id="gneE1001" from="gneJ704" to="gneJ711" priority="1" numLanes="1" speed="13.89"/>
    <edge id="gneE1002" from="gneJ710" to="gneJ717" priority="1" numLanes="1" speed="13.89"/>
    <edge id="gneE1003" from="gneJ716" to="gneJ711" priority="1" numLanes="1" speed="13.89"/>
    <edge id="gneE1004" from="gneJ710" to="gneJ705" priority="1" numLanes="1" speed="13.89"/>
    <edge id="gneE511" from="gneJ315" to="gneJ316" priority="1" numLanes="1" speed="13.89"/>
    <edge id="gneE512" from="gneJ317" to="gneJ318" priority="1" numLanes="1" speed="13.89"/>
    <edge id="gneE513" from="gneJ319" to="gneJ320" priority="1" numLanes="1" speed="13.89"/>
    <edge id="gneE514" from="gneJ316" to="gneJ321" priority="1" numLanes="1" speed="13.89"/>
    <edge id="gneE515" from="gneJ321" to="gneJ322" priority="1" numLanes="1" speed="13.89"/>
    <edge id="gneE516" from="gneJ322" to="gneJ323" priority="1" numLanes="1" speed="13.89"/>
    <edge id="gneE517" from="gneJ323" to="gneJ324" priority="1" numLanes="1" speed="13.89"/>
    <edge id="gneE518" from="gneJ324" to="gneJ325" priority="1" numLanes="1" speed="13.89"/>
    <edge id="gneE519" from="gneJ325" to="gneJ326" priority="1" numLanes="1" speed="13.89"/>
    <edge id="gneE520" from="gneJ326" to="gneJ327" priority="1" numLanes="1" speed="13.89"/>
    <edge id="gneE521" from="gneJ327" to="gneJ328" priority="1" numLanes="1" speed="13.89"/>
    <edge id="gneE522" from="gneJ328" to="gneJ329" priority="1" numLanes="1" speed="13.89"/>
    <edge id="gneE523" from="gneJ329" to="gneJ330" priority="1" numLanes="1" speed="13.89"/>
    <edge id="gneE524" from="gneJ330" to="gneJ331" priority="1" numLanes="1" speed="13.89"/>
    <edge id="gneE525" from="gneJ331" to="gneJ332" priority="1" numLanes="1" speed="13.89"/>
    <edge id="gneE526" from="gneJ332" to="gneJ333" priority="1" numLanes="1" speed="13.89"/>
    <edge id="gneE527" from="gneJ333" to="gneJ334" priority="1" numLanes="1" speed="13.89"/>
    <edge id="gneE528" from="gneJ334" to="gneJ335" priority="1" numLanes="1" speed="13.89"/>
    <edge id="gneE529" from="gneJ335" to="gneJ336" priority="1" numLanes="1" speed="13.89"/>
    <edge id="gneE530" from="gneJ318" to="gneJ337" priority="1" numLanes="1" speed="13.89"/>
    <edge id="gneE531" from="gneJ337" to="gneJ338" priority="1" numLanes="1" speed="13.89"/>
    <edge id="gneE532" from="gneJ338" to="gneJ339" priority="1" numLanes="1" speed="13.89"/>
    <edge id="gneE533" from="gneJ339" to="gneJ340" priority="1" numLanes="1" speed="13.89"/>
    <edge id="gneE534" from="gneJ340" to="gneJ341" priority="1" numLanes="1" speed="13.89"/>
    <edge id="gneE535" from="gneJ341" to="gneJ342" priority="1" numLanes="1" speed="13.89"/>
    <edge id="gneE536" from="gneJ342" to="gneJ343" priority="1" numLanes="1" speed="13.89"/>
    <edge id="gneE537" from="gneJ343" to="gneJ344" priority="1" numLanes="1" speed="13.89"/>
    <edge id="gneE538" from="gneJ344" to="gneJ345" priority="1" numLanes="1" speed="13.89"/>
    <edge id="gneE539" from="gneJ345" to="gneJ346" priority="1" numLanes="1" speed="13.89"/>
    <edge id="gneE540" from="gneJ346" to="gneJ347" priority="1" numLanes="1" speed="13.89"/>
    <edge id="gneE541" from="gneJ347" to="gneJ348" priority="1" numLanes="1" speed="13.89"/>
    <edge id="gneE542" from="gneJ348" to="gneJ349" priority="1" numLanes="1" speed="13.89"/>
    <edge id="gneE543" from="gneJ349" to="gneJ350" priority="1" numLanes="1" speed="13.89"/>
    <edge id="gneE544" from="gneJ350" to="gneJ351" priority="1" numLanes="1" speed="13.89"/>
    <edge id="gneE545" from="gneJ351" to="gneJ352" priority="1" numLanes="1" speed="13.89"/>
    <edge id="gneE546" from="gneJ352" to="gneJ353" priority="1" numLanes="1" speed="13.89"/>
    <edge id="gneE547" from="gneJ353" to="gneJ354" priority="1" numLanes="1" speed="13.89"/>
    <edge id="gneE548" from="gneJ354" to="gneJ355" priority="1" numLanes="1" speed="13.89"/>
    <edge id="gneE549" from="gneJ355" to="gneJ356" priority="1" numLanes="1" speed="13.89"/>
    <edge id="gneE551" from="gneJ320" to="gneJ359" priority="1" numLanes="1" speed="13.89"/>
    <edge id="gneE552" from="gneJ359" to="gneJ360" priority="1" numLanes="1" speed="13.89"/>
    <edge id="gneE553" from="gneJ360" to="gneJ361" priority="1" numLanes="1" speed="13.89"/>
    <edge id="gneE554" from="gneJ361" to="gneJ362" priority="1" numLanes="1" speed="13.89"/>
    <edge id="gneE555" from="gneJ362" to="gneJ363" priority="1" numLanes="1" speed="13.89"/>
    <edge id="gneE556" from="gneJ363" to="gneJ364" priority="1" numLanes="1" speed="13.89"/>
    <edge id="gneE557" from="gneJ364" to="gneJ365" priority="1" numLanes="1" speed="13.89"/>
    <edge id="gneE558" from="gneJ365" to="gneJ366" priority="1" numLanes="1" speed="13.89"/>
    <edge id="gneE559" from="gneJ366" to="gneJ367" priority="1" numLanes="1" speed="13.89"/>
    <edge id="gneE560" from="gneJ367" to="gneJ368" priority="1" numLanes="1" speed="13.89"/>
    <edge id="gneE561" from="gneJ369" to="gneJ370" priority="1" numLanes="1" speed="13.89"/>
    <edge id="gneE562" from="gneJ371" to="gneJ372" priority="1" numLanes="1" speed="13.89"/>
    <edge id="gneE563" from="gneJ373" to="gneJ374" priority="1" numLanes="1" speed="13.89"/>
    <edge id="gneE564" from="gneJ370" to="gneJ375" priority="1" numLanes="1" speed="13.89"/>
    <edge id="gneE565" from="gneJ375" to="gneJ376" priority="1" numLanes="1" speed="13.89"/>
    <edge id="gneE566" from="gneJ376" to="gneJ377" priority="1" numLanes="1" speed="13.89"/>
    <edge id="gneE567" from="gneJ377" to="gneJ378" priority="1" numLanes="1" speed="13.89"/>
    <edge id="gneE568" from="gneJ378" to="gneJ379" priority="1" numLanes="1" speed="13.89"/>
    <edge id="gneE569" from="gneJ379" to="gneJ380" priority="1" numLanes="1" speed="13.89"/>
    <edge id="gneE570" from="gneJ380" to="gneJ381" priority="1" numLanes="1" speed="13.89"/>
    <edge id="gneE571" from="gneJ381" to="gneJ382" priority="1" numLanes="1" speed="13.89"/>
    <edge id="gneE572" from="gneJ382" to="gneJ383" priority="1" numLanes="1" speed="13.89"/>
    <edge id="gneE573" from="gneJ383" to="gneJ384" priority="1" numLanes="1" speed="13.89"/>
    <edge id="gneE574" from="gneJ384" to="gneJ385" priority="1" numLanes="1" speed="13.89"/>
    <edge id="gneE575" from="gneJ385" to="gneJ386" priority="1" numLanes="1" speed="13.89"/>
    <edge id="gneE576" from="gneJ386" to="gneJ387" priority="1" numLanes="1" speed="13.89"/>
    <edge id="gneE577" from="gneJ387" to="gneJ388" priority="1" numLanes="1" speed="13.89"/>
    <edge id="gneE578" from="gneJ388" to="gneJ389" priority="1" numLanes="1" speed="13.89"/>
    <edge id="gneE579" from="gneJ389" to="gneJ390" priority="1" numLanes="1" speed="13.89"/>
    <edge id="gneE580" from="gneJ390" to="gneJ391" priority="1" numLanes="1" speed="13.89"/>
    <edge id="gneE581" from="gneJ391" to="gneJ392" priority="1" numLanes="1" speed="13.89"/>
    <edge id="gneE582" from="gneJ372" to="gneJ393" priority="1" numLanes="1" speed="13.89"/>
    <edge id="gneE583" from="gneJ393" to="gneJ394" priority="1" numLanes="1" speed="13.89"/>
    <edge id="gneE584" from="gneJ394" to="gneJ395" priority="1" numLanes="1" speed="13.89"/>
    <edge id="gneE585" from="gneJ395" to="gneJ396" priority="1" numLanes="1" speed="13.89"/>
    <edge id="gneE586" from="gneJ396" to="gneJ397" priority="1" numLanes="1" speed="13.89"/>
    <edge id="gneE587" from="gneJ397" to="gneJ398" priority="1" numLanes="1" speed="13.89"/>
    <edge id="gneE588" from="gneJ398" to="gneJ399" priority="1" numLanes="1" speed="13.89"/>
    <edge id="gneE589" from="gneJ399" to="gneJ400" priority="1" numLanes="1" speed="13.89"/>
    <edge id="gneE590" from="gneJ400" to="gneJ401" priority="1" numLanes="1" speed="13.89"/>
    <edge id="gneE591" from="gneJ401" to="gneJ402" priority="1" numLanes="1" speed="13.89"/>
    <edge id="gneE592" from="gneJ402" to="gneJ403" priority="1" numLanes="1" speed="13.89"/>
    <edge id="gneE593" from="gneJ403" to="gneJ404" priority="1" numLanes="1" speed="13.89"/>
    <edge id="gneE594" from="gneJ404" to="gneJ405" priority="1" numLanes="1" speed="13.89"/>
    <edge id="gneE595" from="gneJ405" to="gneJ406" priority="1" numLanes="1" speed="13.89"/>
    <edge id="gneE596" from="gneJ406" to="gneJ407" priority="1" numLanes="1" speed="13.89"/>
    <edge id="gneE597" from="gneJ407" to="gneJ408" priority="1" numLanes="1" speed="13.89"/>
    <edge id="gneE598" from="gneJ408" to="gneJ409" priority="1" numLanes="1" speed="13.89"/>
    <edge id="gneE599" from="gneJ409" to="gneJ410" priority="1" numLanes="1" speed="13.89"/>
    <edge id="gneE600" from="gneJ410" to="gneJ411" priority="1" numLanes="1" speed="13.89"/>
    <edge id="gneE601" from="gneJ374" to="gneJ412" priority="1" numLanes="1" speed="13.89"/>
    <edge id="gneE602" from="gneJ412" to="gneJ413" priority="1" numLanes="1" speed="13.89"/>
    <edge id="gneE603" from="gneJ413" to="gneJ414" priority="1" numLanes="1" speed="13.89"/>
    <edge id="gneE604" from="gneJ414" to="gneJ415" priority="1" numLanes="1" speed="13.89"/>
    <edge id="gneE605" from="gneJ415" to="gneJ416" priority="1" numLanes="1" speed="13.89"/>
    <edge id="gneE606" from="gneJ416" to="gneJ417" priority="1" numLanes="1" speed="13.89"/>
    <edge id="gneE607" from="gneJ417" to="gneJ418" priority="1" numLanes="1" speed="13.89"/>
    <edge id="gneE608" from="gneJ418" to="gneJ419" priority="1" numLanes="1" speed="13.89"/>
    <edge id="gneE609" from="gneJ419" to="gneJ420" priority="1" numLanes="1" speed="13.89"/>
    <edge id="gneE610" from="gneJ420" to="gneJ421" priority="1" numLanes="1" speed="13.89"/>
    <edge id="gneE611" from="gneJ422" to="gneJ423" priority="1" numLanes="1" speed="13.89"/>
    <edge id="gneE612" from="gneJ424" to="gneJ425" priority="1" numLanes="1" speed="13.89"/>
    <edge id="gneE613" from="gneJ426" to="gneJ427" priority="1" numLanes="1" speed="13.89"/>
    <edge id="gneE614" from="gneJ423" to="gneJ428" priority="1" numLanes="1" speed="13.89"/>
    <edge id="gneE615" from="gneJ428" to="gneJ429" priority="1" numLanes="1" speed="13.89"/>
    <edge id="gneE616" from="gneJ429" to="gneJ430" priority="1" numLanes="1" speed="13.89"/>
    <edge id="gneE617" from="gneJ430" to="gneJ431" priority="1" numLanes="1" speed="13.89"/>
    <edge id="gneE618" from="gneJ431" to="gneJ432" priority="1" numLanes="1" speed="13.89"/>
    <edge id="gneE619" from="gneJ432" to="gneJ433" priority="1" numLanes="1" speed="13.89"/>
    <edge id="gneE620" from="gneJ433" to="gneJ434" priority="1" numLanes="1" speed="13.89"/>
    <edge id="gneE621" from="gneJ434" to="gneJ435" priority="1" numLanes="1" speed="13.89"/>
    <edge id="gneE622" from="gneJ435" to="gneJ436" priority="1" numLanes="1" speed="13.89"/>
    <edge id="gneE623" from="gneJ436" to="gneJ437" priority="1" numLanes="1" speed="13.89"/>
    <edge id="gneE624" from="gneJ437" to="gneJ438" priority="1" numLanes="1" speed="13.89"/>
    <edge id="gneE625" from="gneJ438" to="gneJ439" priority="1" numLanes="1" speed="13.89"/>
    <edge id="gneE626" from="gneJ439" to="gneJ440" priority="1" numLanes="1" speed="13.89"/>
    <edge id="gneE627" from="gneJ440" to="gneJ441" priority="1" numLanes="1" speed="13.89"/>
    <edge id="gneE628" from="gneJ425" to="gneJ442" priority="1" numLanes="1" speed="13.89"/>
    <edge id="gneE629" from="gneJ442" to="gneJ443" priority="1" numLanes="1" speed="13.89"/>
    <edge id="gneE630" from="gneJ443" to="gneJ444" priority="1" numLanes="1" speed="13.89"/>
    <edge id="gneE631" from="gneJ444" to="gneJ445" priority="1" numLanes="1" speed="13.89"/>
    <edge id="gneE632" from="gneJ445" to="gneJ446" priority="1" numLanes="1" speed="13.89"/>
    <edge id="gneE633" from="gneJ446" to="gneJ447" priority="1" numLanes="1" speed="13.89"/>
    <edge id="gneE634" from="gneJ447" to="gneJ448" priority="1" numLanes="1" speed="13.89"/>
    <edge id="gneE635" from="gneJ448" to="gneJ449" priority="1" numLanes="1" speed="13.89"/>
    <edge id="gneE636" from="gneJ449" to="gneJ450" priority="1" numLanes="1" speed="13.89"/>
    <edge id="gneE637" from="gneJ450" to="gneJ451" priority="1" numLanes="1" speed="13.89"/>
    <edge id="gneE638" from="gneJ451" to="gneJ452" priority="1" numLanes="1" speed="13.89"/>
    <edge id="gneE639" from="gneJ452" to="gneJ453" priority="1" numLanes="1" speed="13.89"/>
    <edge id="gneE640" from="gneJ453" to="gneJ454" priority="1" numLanes="1" speed="13.89"/>
    <edge id="gneE641" from="gneJ454" to="gneJ455" priority="1" numLanes="1" speed="13.89"/>
    <edge id="gneE642" from="gneJ455" to="gneJ456" priority="1" numLanes="1" speed="13.89"/>
    <edge id="gneE643" from="gneJ456" to="gneJ457" priority="1" numLanes="1" speed="13.89"/>
    <edge id="gneE644" from="gneJ457" to="gneJ458" priority="1" numLanes="1" speed="13.89"/>
    <edge id="gneE645" from="gneJ458" to="gneJ459" priority="1" numLanes="1" speed="13.89"/>
    <edge id="gneE646" from="gneJ459" to="gneJ460" priority="1" numLanes="1" speed="13.89"/>
    <edge id="gneE647" from="gneJ460" to="gneJ461" priority="1" numLanes="1" speed="13.89"/>
    <edge id="gneE648" from="gneJ427" to="gneJ462" priority="1" numLanes="1" speed="13.89"/>
    <edge id="gneE649" from="gneJ462" to="gneJ463" priority="1" numLanes="1" speed="13.89"/>
    <edge id="gneE650" from="gneJ463" to="gneJ464" priority="1" numLanes="1" speed="13.89"/>
    <edge id="gneE651" from="gneJ464" to="gneJ465" priority="1" numLanes="1" speed="13.89"/>
    <edge id="gneE652" from="gneJ465" to="gneJ466" priority="1" numLanes="1" speed="13.89"/>
    <edge id="gneE653" from="gneJ466" to="gneJ467" priority="1" numLanes="1" speed="13.89"/>
    <edge id="gneE654" from="gneJ467" to="gneJ468" priority="1" numLanes="1" speed="13.89"/>
    <edge id="gneE655" from="gneJ468" to="gneJ469" priority="1" numLanes="1" speed="13.89"/>
    <edge id="gneE656" from="gneJ469" to="gneJ470" priority="1" numLanes="1" speed="13.89"/>
    <edge id="gneE657" from="gneJ471" to="gneJ472" priority="1" numLanes="1" speed="13.89"/>
    <edge id="gneE658" from="gneJ473" to="gneJ474" priority="1" numLanes="1" speed="13.89"/>
    <edge id="gneE659" from="gneJ475" to="gneJ476" priority="1" numLanes="1" speed="13.89"/>
    <edge id="gneE660" from="gneJ472" to="gneJ477" priority="1" numLanes="1" speed="13.89"/>
    <edge id="gneE661" from="gneJ477" to="gneJ478" priority="1" numLanes="1" speed="13.89"/>
    <edge id="gneE662" from="gneJ478" to="gneJ479" priority="1" numLanes="1" speed="13.89"/>
    <edge id="gneE663" from="gneJ479" to="gneJ480" priority="1" numLanes="1" speed="13.89"/>
    <edge id="gneE664" from="gneJ480" to="gneJ481" priority="1" numLanes="1" speed="13.89"/>
    <edge id="gneE665" from="gneJ481" to="gneJ482" priority="1" numLanes="1" speed="13.89"/>
    <edge id="gneE666" from="gneJ482" to="gneJ483" priority="1" numLanes="1" speed="13.89"/>
    <edge id="gneE667" from="gneJ483" to="gneJ484" priority="1" numLanes="1" speed="13.89"/>
    <edge id="gneE668" from="gneJ484" to="gneJ485" priority="1" numLanes="1" speed="13.89"/>
    <edge id="gneE669" from="gneJ485" to="gneJ486" priority="1" numLanes="1" speed="13.89"/>
    <edge id="gneE670" from="gneJ486" to="gneJ487" priority="1" numLanes="1" speed="13.89"/>
    <edge id="gneE671" from="gneJ487" to="gneJ488" priority="1" numLanes="1" speed="13.89"/>
    <edge id="gneE672" from="gneJ488" to="gneJ489" priority="1" numLanes="1" speed="13.89"/>
    <edge id="gneE673" from="gneJ489" to="gneJ490" priority="1" numLanes="1" speed="13.89"/>
    <edge id="gneE674" from="gneJ490" to="gneJ491" priority="1" numLanes="1" speed="13.89"/>
    <edge id="gneE677" from="gneJ474" to="gneJ494" priority="1" numLanes="1" speed="13.89"/>
    <edge id="gneE678" from="gneJ494" to="gneJ495" priority="1" numLanes="1" speed="13.89"/>
    <edge id="gneE679" from="gneJ495" to="gneJ496" priority="1" numLanes="1" speed="13.89"/>
    <edge id="gneE680" from="gneJ496" to="gneJ497" priority="1" numLanes="1" speed="13.89"/>
    <edge id="gneE681" from="gneJ497" to="gneJ498" priority="1" numLanes="1" speed="13.89"/>
    <edge id="gneE682" from="gneJ498" to="gneJ499" priority="1" numLanes="1" speed="13.89"/>
    <edge id="gneE683" from="gneJ499" to="gneJ500" priority="1" numLanes="1" speed="13.89"/>
    <edge id="gneE684" from="gneJ500" to="gneJ501" priority="1" numLanes="1" speed="13.89"/>
    <edge id="gneE685" from="gneJ501" to="gneJ502" priority="1" numLanes="1" speed="13.89"/>
    <edge id="gneE686" from="gneJ502" to="gneJ503" priority="1" numLanes="1" speed="13.89"/>
    <edge id="gneE687" from="gneJ503" to="gneJ504" priority="1" numLanes="1" speed="13.89"/>
    <edge id="gneE688" from="gneJ504" to="gneJ505" priority="1" numLanes="1" speed="13.89"/>
    <edge id="gneE689" from="gneJ505" to="gneJ506" priority="1" numLanes="1" speed="13.89"/>
    <edge id="gneE690" from="gneJ506" to="gneJ507" priority="1" numLanes="1" speed="13.89"/>
    <edge id="gneE691" from="gneJ507" to="gneJ508" priority="1" numLanes="1" speed="13.89"/>
    <edge id="gneE692" from="gneJ508" to="gneJ509" priority="1" numLanes="1" speed="13.89"/>
    <edge id="gneE693" from="gneJ509" to="gneJ510" priority="1" numLanes="1" speed="13.89"/>
    <edge id="gneE694" from="gneJ510" to="gneJ511" priority="1" numLanes="1" speed="13.89"/>
    <edge id="gneE695" from="gneJ511" to="gneJ512" priority="1" numLanes="1" speed="13.89"/>
    <edge id="gneE696" from="gneJ512" to="gneJ513" priority="1" numLanes="1" speed="13.89"/>
    <edge id="gneE697" from="gneJ476" to="gneJ514" priority="1" numLanes="1" speed="13.89"/>
    <edge id="gneE698" from="gneJ514" to="gneJ515" priority="1" numLanes="1" speed="13.89"/>
    <edge id="gneE699" from="gneJ515" to="gneJ516" priority="1" numLanes="1" speed="13.89"/>
    <edge id="gneE700" from="gneJ516" to="gneJ517" priority="1" numLanes="1" speed="13.89"/>
    <edge id="gneE701" from="gneJ517" to="gneJ518" priority="1" numLanes="1" speed="13.89"/>
    <edge id="gneE702" from="gneJ518" to="gneJ519" priority="1" numLanes="1" speed="13.89"/>
    <edge id="gneE703" from="gneJ519" to="gneJ520" priority="1" numLanes="1" speed="13.89"/>
    <edge id="gneE704" from="gneJ520" to="gneJ521" priority="1" numLanes="1" speed="13.89"/>
    <edge id="gneE705" from="gneJ521" to="gneJ522" priority="1" numLanes="1" speed="13.89"/>
    <edge id="gneE707" from="gneJ368" to="gneJ524" priority="1" numLanes="1" speed="13.89"/>
    <edge id="gneE708" from="gneJ461" to="gneJ525" priority="1" numLanes="1" speed="13.89"/>
    <edge id="gneE709" from="gneJ491" to="gneJ526" priority="1" numLanes="1" speed="13.89"/>
    <edge id="gneE710" from="gneJ527" to="gneJ369" priority="1" numLanes="1" speed="13.89"/>
    <edge id="gneE711" from="gneJ528" to="gneJ371" priority="1" numLanes="1" speed="13.89"/>
    <edge id="gneE712" from="gneJ529" to="gneJ373" priority="1" numLanes="1" speed="13.89"/>
    <edge id="gneE713" from="gneJ524" to="gneJ530" priority="1" numLanes="1" speed="13.89"/>
    <edge id="gneE714" from="gneJ531" to="gneJ532" priority="1" numLanes="1" speed="13.89"/>
    <edge id="gneE715" from="gneJ525" to="gneJ533" priority="1" numLanes="1" speed="13.89"/>
    <edge id="gneE716" from="gneJ470" to="gneJ534" priority="1" numLanes="1" speed="13.89"/>
    <edge id="gneE717" from="gneJ392" to="gneJ535" priority="1" numLanes="1" speed="13.89"/>
    <edge id="gneE718" from="gneJ356" to="gneJ536" priority="1" numLanes="1" speed="13.89"/>
    <edge id="gneE719" from="gneJ537" to="gneJ471" priority="1" numLanes="1" speed="13.89"/>
    <edge id="gneE720" from="gneJ538" to="gneJ473" priority="1" numLanes="1" speed="13.89"/>
    <edge id="gneE721" from="gneJ539" to="gneJ475" priority="1" numLanes="1" speed="13.89"/>
    <edge id="gneE722" from="gneJ540" to="gneJ317" priority="1" numLanes="1" speed="13.89"/>
    <edge id="gneE723" from="gneJ541" to="gneJ315" priority="1" numLanes="1" speed="13.89"/>
    <edge id="gneE724" from="gneJ542" to="gneJ319" priority="1" numLanes="1" speed="13.89"/>
    <edge id="gneE726" from="gneJ441" to="gneJ545" priority="1" numLanes="1" speed="13.89"/>
    <edge id="gneE727" from="gneJ522" to="gneJ546" priority="1" numLanes="1" speed="13.89"/>
    <edge id="gneE728" from="gneJ411" to="gneJ547" priority="1" numLanes="1" speed="13.89"/>
    <edge id="gneE729" from="gneJ336" to="gneJ548" priority="1" numLanes="1" speed="13.89"/>
    <edge id="gneE730" from="gneJ549" to="gneJ424" priority="1" numLanes="1" speed="13.89"/>
    <edge id="gneE731" from="gneJ513" to="gneJ550" priority="1" numLanes="1" speed="13.89"/>
    <edge id="gneE732" from="gneJ421" to="gneJ551" priority="1" numLanes="1" speed="13.89"/>
    <edge id="gneE733" from="gneJ552" to="gneJ422" priority="1" numLanes="1" speed="13.89"/>
    <edge id="gneE734" from="gneJ553" to="gneJ426" priority="1" numLanes="1" speed="13.89"/>
    <edge id="gneE737" from="gneJ535" to="gneJ558" priority="1" numLanes="1" speed="13.89"/>
    <edge id="gneE738" from="gneJ534" to="gneJ559" priority="1" numLanes="1" speed="13.89"/>
    <edge id="gneE740" from="gneJ536" to="gneJ562" priority="1" numLanes="1" speed="13.89"/>
    <edge id="gneE741" from="gneJ563" to="gneJ538" priority="1" numLanes="1" speed="13.89"/>
    <edge id="gneE742" from="gneJ564" to="gneJ537" priority="1" numLanes="1" speed="13.89"/>
    <edge id="gneE743" from="gneJ565" to="gneJ539" priority="1" numLanes="1" speed="13.89"/>
    <edge id="gneE744" from="gneJ566" to="gneJ528" priority="1" numLanes="1" speed="13.89"/>
    <edge id="gneE745" from="gneJ567" to="gneJ527" priority="1" numLanes="1" speed="13.89"/>
    <edge id="gneE746" from="gneJ568" to="gneJ569" priority="1" numLanes="1" speed="13.89"/>
    <edge id="gneE747" from="gneJ548" to="gneJ570" priority="1" numLanes="1" speed="13.89"/>
    <edge id="gneE748" from="gneJ551" to="gneJ571" priority="1" numLanes="1" speed="13.89"/>
    <edge id="gneE749" from="gneJ550" to="gneJ572" priority="1" numLanes="1" speed="13.89"/>
    <edge id="gneE750" from="gneJ573" to="gneJ574" priority="1" numLanes="1" speed="13.89"/>
    <edge id="gneE751" from="gneJ575" to="gneJ552" priority="1" numLanes="1" speed="13.89"/>
    <edge id="gneE752" from="gneJ576" to="gneJ553" priority="1" numLanes="1" speed="13.89"/>
    <edge id="gneE753" from="gneJ577" to="gneJ578" priority="1" numLanes="1" speed="13.89"/>
    <edge id="gneE754" from="gneJ547" to="gneJ579" priority="1" numLanes="1" speed="13.89"/>
    <edge id="gneE755" from="gneJ546" to="gneJ580" priority="1" numLanes="1" speed="13.89"/>
    <edge id="gneE756" from="gneJ581" to="gneJ542" priority="1" numLanes="1" speed="13.89"/>
    <edge id="gneE757" from="gneJ582" to="gneJ540" priority="1" numLanes="1" speed="13.89"/>
    <edge id="gneE758" from="gneJ583" to="gneJ541" priority="1" numLanes="1" speed="13.89"/>
    <edge id="gneE759" from="gneJ530" to="gneJ584" priority="1" numLanes="1" speed="13.89"/>
    <edge id="gneE760" from="gneJ585" to="gneJ586" priority="1" numLanes="1" speed="13.89"/>
    <edge id="gneE761" from="gneJ584" to="gneJ585" priority="1" numLanes="1" speed="13.89"/>
    <edge id="gneE762" from="gneJ586" to="gneJ587" priority="1" numLanes="1" speed="13.89"/>
    <edge id="gneE763" from="gneJ587" to="gneJ588" priority="1" numLanes="1" speed="13.89"/>
    <edge id="gneE764" from="gneJ588" to="east-out3" priority="1" numLanes="1" speed="13.89"/>
    <edge id="gneE765" from="gneJ532" to="gneJ590" priority="1" numLanes="1" speed="13.89"/>
    <edge id="gneE766" from="gneJ590" to="gneJ591" priority="1" numLanes="1" speed="13.89"/>
    <edge id="gneE767" from="gneJ591" to="gneJ592" priority="1" numLanes="1" speed="13.89"/>
    <edge id="gneE768" from="gneJ592" to="gneJ593" priority="1" numLanes="1" speed="13.89"/>
    <edge id="gneE769" from="gneJ593" to="gneJ594" priority="1" numLanes="1" speed="13.89"/>
    <edge id="gneE770" from="gneJ594" to="east-out2" priority="1" numLanes="1" speed="13.89"/>
    <edge id="gneE772" from="gneJ533" to="gneJ596" priority="1" numLanes="1" speed="13.89"/>
    <edge id="gneE773" from="gneJ596" to="gneJ597" priority="1" numLanes="1" speed="13.89"/>
    <edge id="gneE774" from="gneJ597" to="gneJ598" priority="1" numLanes="1" speed="13.89"/>
    <edge id="gneE775" from="gneJ598" to="gneJ599" priority="1" numLanes="1" speed="13.89"/>
    <edge id="gneE776" from="gneJ599" to="gneJ600" priority="1" numLanes="1" speed="13.89"/>
    <edge id="gneE777" from="gneJ600" to="east-out1" priority="1" numLanes="1" speed="13.89"/>
    <edge id="gneE778" from="east1" to="gneJ603" priority="1" numLanes="1" speed="13.89"/>
    <edge id="gneE779" from="gneJ603" to="gneJ604" priority="1" numLanes="1" speed="13.89"/>
    <edge id="gneE780" from="gneJ604" to="gneJ605" priority="1" numLanes="1" speed="13.89"/>
    <edge id="gneE781" from="gneJ605" to="gneJ606" priority="1" numLanes="1" speed="13.89"/>
    <edge id="gneE782" from="gneJ606" to="gneJ607" priority="1" numLanes="1" speed="13.89"/>
    <edge id="gneE783" from="gneJ607" to="gneJ567" priority="1" numLanes="1" speed="13.89"/>
    <edge id="gneE784" from="east2" to="gneJ609" priority="1" numLanes="1" speed="13.89"/>
    <edge id="gneE785" from="gneJ609" to="gneJ610" priority="1" numLanes="1" speed="13.89"/>
    <edge id="gneE786" from="gneJ610" to="gneJ611" priority="1" numLanes="1" speed="13.89"/>
    <edge id="gneE787" from="gneJ611" to="gneJ612" priority="1" numLanes="1" speed="13.89"/>
    <edge id="gneE788" from="gneJ612" to="gneJ613" priority="1" numLanes="1" speed="13.89"/>
    <edge id="gneE789" from="gneJ613" to="gneJ566" priority="1" numLanes="1" speed="13.89"/>
    <edge id="gneE790" from="east3" to="gneJ615" priority="1" numLanes="1" speed="13.89"/>
    <edge id="gneE791" from="gneJ615" to="gneJ616" priority="1" numLanes="1" speed="13.89"/>
    <edge id="gneE792" from="gneJ616" to="gneJ617" priority="1" numLanes="1" speed="13.89"/>
    <edge id="gneE793" from="gneJ617" to="gneJ618" priority="1" numLanes="1" speed="13.89"/>
    <edge id="gneE794" from="gneJ618" to="gneJ619" priority="1" numLanes="1" speed="13.89"/>
    <edge id="gneE795" from="gneJ619" to="gneJ568" priority="1" numLanes="1" speed="13.89"/>
    <edge id="gneE796" from="gneJ615" to="gneJ610" priority="1" numLanes="1" speed="13.89"/>
    <edge id="gneE797" from="gneJ609" to="gneJ616" priority="1" numLanes="1" speed="13.89"/>
    <edge id="gneE798" from="gneJ609" to="gneJ604" priority="1" numLanes="1" speed="13.89"/>
    <edge id="gneE799" from="gneJ603" to="gneJ610" priority="1" numLanes="1" speed="13.89"/>
    <edge id="gneE800" from="gneJ617" to="gneJ612" priority="1" numLanes="1" speed="13.89"/>
    <edge id="gneE801" from="gneJ611" to="gneJ618" priority="1" numLanes="1" speed="13.89"/>
    <edge id="gneE802" from="gneJ611" to="gneJ606" priority="1" numLanes="1" speed="13.89"/>
    <edge id="gneE803" from="gneJ605" to="gneJ612" priority="1" numLanes="1" speed="13.89"/>
    <edge id="gneE804" from="gneJ619" to="gneJ566" priority="1" numLanes="1" speed="13.89"/>
    <edge id="gneE805" from="gneJ613" to="gneJ568" priority="1" numLanes="1" speed="13.89"/>
    <edge id="gneE806" from="gneJ613" to="gneJ567" priority="1" numLanes="1" speed="13.89"/>
    <edge id="gneE807" from="gneJ607" to="gneJ566" priority="1" numLanes="1" speed="13.89"/>
    <edge id="gneE808" from="gneJ533" to="gneJ590" priority="1" numLanes="1" speed="13.89"/>
    <edge id="gneE809" from="gneJ532" to="gneJ596" priority="1" numLanes="1" speed="13.89"/>
    <edge id="gneE810" from="gneJ530" to="gneJ590" priority="1" numLanes="1" speed="13.89"/>
    <edge id="gneE812" from="gneJ532" to="gneJ584" priority="1" numLanes="1" speed="13.89"/>
    <edge id="gneE813" from="gneJ597" to="gneJ592" priority="1" numLanes="1" speed="13.89"/>
    <edge id="gneE814" from="gneJ591" to="gneJ598" priority="1" numLanes="1" speed="13.89"/>
    <edge id="gneE815" from="gneJ585" to="gneJ620" priority="1" numLanes="1" speed="13.89"/>
    <edge id="gneE816" from="gneJ591" to="gneJ586" priority="1" numLanes="1" speed="13.89"/>
    <edge id="gneE817" from="gneJ599" to="gneJ594" priority="1" numLanes="1" speed="13.89"/>
    <edge id="gneE818" from="gneJ593" to="gneJ600" priority="1" numLanes="1" speed="13.89"/>
    <edge id="gneE819" from="gneJ587" to="gneJ594" priority="1" numLanes="1" speed="13.89"/>
    <edge id="gneE820" from="gneJ593" to="gneJ588" priority="1" numLanes="1" speed="13.89"/>
    <edge id="gneE822" from="gneJ570" to="gneJ623" priority="1" numLanes="1" speed="13.89"/>
    <edge id="gneE823" from="gneJ623" to="gneJ624" priority="1" numLanes="1" speed="13.89"/>
    <edge id="gneE824" from="gneJ624" to="gneJ625" priority="1" numLanes="1" speed="13.89"/>
    <edge id="gneE825" from="gneJ625" to="gneJ626" priority="1" numLanes="1" speed="13.89"/>