<?xml version="1.0" encoding="UTF-8"?>

<!-- generated on 05/16/18 14:18:18 by SUMO netconvert Version 0.32.0
<?xml version="1.0" encoding="UTF-8"?>

<configuration xmlns:xsi="http://www.w3.org/2001/XMLSchema-instance" xsi:noNamespaceSchemaLocation="http://sumo.dlr.de/xsd/netconvertConfiguration.xsd">

    <input>
        <osm-files value="Turbine2.osm"/>
    </input>

    <output>
        <output-file value="Turbine2.net.xml"/>
    </output>

    <projection>
        <proj.utm value="true"/>
    </projection>

</configuration>
-->

<net version="0.27" xmlns:xsi="http://www.w3.org/2001/XMLSchema-instance" xsi:noNamespaceSchemaLocation="http://sumo.dlr.de/xsd/net_file.xsd">

    <location netOffset="-341019.26,-2796629.79" convBoundary="0.00,0.00,4105.76,5522.07" origBoundary="55.420441,25.278100,55.461850,25.327520" projParameter="+proj=utm +zone=40 +ellps=WGS84 +datum=WGS84 +units=m +no_defs"/>

    <type id="highway.bridleway" priority="1" numLanes="1" speed="2.78" allow="pedestrian" oneway="1" width="2.00"/>
    <type id="highway.bus_guideway" priority="1" numLanes="1" speed="8.33" allow="bus" oneway="1"/>
    <type id="highway.cycleway" priority="1" numLanes="1" speed="5.56" allow="bicycle" oneway="0" width="1.00"/>
    <type id="highway.footway" priority="1" numLanes="1" speed="2.78" allow="pedestrian" oneway="1" width="2.00"/>
    <type id="highway.ford" priority="1" numLanes="1" speed="2.78" allow="army" oneway="0"/>
    <type id="highway.living_street" priority="3" numLanes="1" speed="2.78" disallow="tram rail_urban rail rail_electric ship" oneway="0"/>
    <type id="highway.motorway" priority="13" numLanes="2" speed="44.44" allow="private emergency authority army vip passenger hov taxi bus coach delivery truck trailer motorcycle evehicle custom1 custom2" oneway="1"/>
    <type id="highway.motorway_link" priority="12" numLanes="1" speed="22.22" allow="private emergency authority army vip passenger hov taxi bus coach delivery truck trailer motorcycle evehicle custom1 custom2" oneway="1"/>
    <type id="highway.path" priority="1" numLanes="1" speed="2.78" allow="bicycle pedestrian" oneway="1" width="2.00"/>
    <type id="highway.pedestrian" priority="1" numLanes="1" speed="2.78" allow="pedestrian" oneway="1" width="2.00"/>
    <type id="highway.primary" priority="9" numLanes="2" speed="27.78" disallow="tram rail_urban rail rail_electric ship" oneway="0"/>
    <type id="highway.primary_link" priority="8" numLanes="1" speed="22.22" disallow="tram rail_urban rail rail_electric ship" oneway="0"/>
    <type id="highway.raceway" priority="14" numLanes="2" speed="83.33" allow="vip" oneway="0"/>
    <type id="highway.residential" priority="4" numLanes="1" speed="13.89" disallow="tram rail_urban rail rail_electric ship" oneway="0"/>
    <type id="highway.secondary" priority="7" numLanes="2" speed="27.78" disallow="tram rail_urban rail rail_electric ship" oneway="0"/>
    <type id="highway.secondary_link" priority="6" numLanes="1" speed="22.22" disallow="tram rail_urban rail rail_electric ship" oneway="0"/>
    <type id="highway.service" priority="2" numLanes="1" speed="5.56" allow="delivery bicycle pedestrian" oneway="0"/>
    <type id="highway.services" priority="1" numLanes="1" speed="8.33" disallow="tram rail_urban rail rail_electric ship" oneway="0"/>
    <type id="highway.stairs" priority="1" numLanes="1" speed="1.39" allow="pedestrian" oneway="1" width="2.00"/>
    <type id="highway.step" priority="1" numLanes="1" speed="1.39" allow="pedestrian" oneway="1" width="2.00"/>
    <type id="highway.steps" priority="1" numLanes="1" speed="1.39" allow="pedestrian" oneway="1" width="2.00"/>
    <type id="highway.tertiary" priority="6" numLanes="1" speed="22.22" disallow="tram rail_urban rail rail_electric ship" oneway="0"/>
    <type id="highway.tertiary_link" priority="5" numLanes="1" speed="22.22" disallow="tram rail_urban rail rail_electric ship" oneway="0"/>
    <type id="highway.track" priority="1" numLanes="1" speed="5.56" disallow="tram rail_urban rail rail_electric ship" oneway="0"/>
    <type id="highway.trunk" priority="11" numLanes="2" speed="27.78" disallow="tram rail_urban rail rail_electric bicycle pedestrian ship" oneway="0"/>
    <type id="highway.trunk_link" priority="10" numLanes="1" speed="22.22" disallow="tram rail_urban rail rail_electric bicycle pedestrian ship" oneway="0"/>
    <type id="highway.unclassified" priority="5" numLanes="1" speed="13.89" disallow="tram rail_urban rail rail_electric ship" oneway="0"/>
    <type id="highway.unsurfaced" priority="1" numLanes="1" speed="8.33" disallow="tram rail_urban rail rail_electric ship" oneway="0"/>
    <type id="railway.light_rail" priority="15" numLanes="1" speed="27.78" allow="rail_urban" oneway="1"/>
    <type id="railway.preserved" priority="15" numLanes="1" speed="27.78" allow="rail" oneway="1"/>
    <type id="railway.rail" priority="15" numLanes="1" speed="83.33" allow="rail rail_electric" oneway="1"/>
    <type id="railway.subway" priority="15" numLanes="1" speed="27.78" allow="rail_urban" oneway="1"/>
    <type id="railway.tram" priority="15" numLanes="1" speed="13.89" allow="tram" oneway="1"/>

    <edge id=":1193454337_0" function="internal">
        <lane id=":1193454337_0_0" index="0" allow="private emergency authority army vip passenger hov taxi bus coach delivery truck trailer motorcycle evehicle custom1 custom2" speed="33.33" length="23.72" shape="2584.77,3415.96 2602.81,3400.55"/>
    </edge>
    <edge id=":1193454337_1" function="internal">
        <lane id=":1193454337_1_0" index="0" allow="private emergency authority army vip passenger hov taxi bus coach delivery truck trailer motorcycle evehicle custom1 custom2" speed="44.44" length="23.72" shape="2584.77,3415.96 2604.84,3403.30"/>
    </edge>
    <edge id=":1193454525_0" function="internal">
        <lane id=":1193454525_0_0" index="0" allow="private emergency authority army vip passenger hov taxi bus coach delivery truck trailer motorcycle evehicle custom1 custom2" speed="22.22" length="3.00" shape="2625.74,3380.73 2626.35,3377.87"/>
        <lane id=":1193454525_0_1" index="1" allow="private emergency authority army vip passenger hov taxi bus coach delivery truck trailer motorcycle evehicle custom1 custom2" speed="22.22" length="3.00" shape="2625.74,3380.73 2628.74,3380.14"/>
    </edge>
    <edge id=":1826913331_0" function="internal">
        <lane id=":1826913331_0_0" index="0" allow="private emergency authority army vip passenger hov taxi bus coach delivery truck trailer motorcycle evehicle custom1 custom2" speed="22.22" length="0.23" shape="2501.30,3504.09 2501.25,3504.13 2501.21,3504.16 2501.18,3504.20 2501.14,3504.25"/>
    </edge>
    <edge id=":1826913496_0" function="internal">
        <lane id=":1826913496_0_0" index="0" allow="private emergency authority army vip passenger hov taxi bus coach delivery truck trailer motorcycle evehicle custom1 custom2" speed="33.33" length="26.84" shape="2566.94,3449.93 2562.48,3453.31 2556.44,3458.27 2550.45,3463.31 2546.17,3466.92"/>
    </edge>
    <edge id=":1826913496_1" function="internal">
        <lane id=":1826913496_1_0" index="0" allow="private emergency authority army vip passenger hov taxi bus coach delivery truck trailer motorcycle evehicle custom1 custom2" speed="44.44" length="26.84" shape="2566.94,3449.93 2544.18,3464.17"/>
    </edge>
    <edge id=":1826913711_0" function="internal">
        <lane id=":1826913711_0_0" index="0" allow="private emergency authority army vip passenger hov taxi bus coach delivery truck trailer motorcycle evehicle custom1 custom2" speed="33.33" length="31.45" shape="2157.32,3786.93 2153.26,3791.78 2147.22,3799.00 2141.29,3806.30 2137.55,3811.38"/>
    </edge>
    <edge id=":1826913711_1" function="internal">
        <lane id=":1826913711_1_0" index="0" allow="private emergency authority army vip passenger hov taxi bus coach delivery truck trailer motorcycle evehicle custom1 custom2" speed="44.44" length="31.45" shape="2154.62,3784.96 2137.55,3811.38"/>
    </edge>
    <edge id=":1927298908_0" function="internal">
        <lane id=":1927298908_0_0" index="0" disallow="tram rail_urban rail rail_electric ship" speed="20.84" length="5.14" shape="2852.54,3717.45 2851.62,3716.36 2850.59,3715.88 2849.46,3715.99 2848.22,3716.72"/>
    </edge>
    <edge id=":1927298908_1" function="internal">
        <lane id=":1927298908_1_0" index="0" disallow="tram rail_urban rail rail_electric ship" speed="13.89" length="4.82" shape="2852.54,3717.45 2852.58,3715.97 2853.06,3715.18 2853.98,3715.09 2855.34,3715.70"/>
    </edge>
    <edge id=":1927298908_2" function="internal">
        <lane id=":1927298908_2_0" index="0" disallow="tram rail_urban rail rail_electric ship" speed="20.84" length="5.33" shape="2856.06,3711.06 2855.05,3711.98 2854.59,3713.06 2854.69,3714.30 2855.34,3715.70"/>
    </edge>
    <edge id=":1927298908_3" function="internal">
        <lane id=":1927298908_3_0" index="0" disallow="tram rail_urban rail rail_electric ship" speed="27.78" length="9.67" shape="2856.06,3711.06 2853.66,3712.63 2852.04,3713.75 2850.47,3714.93 2848.22,3716.72"/>
    </edge>
    <edge id=":1927299095_0" function="internal">
        <lane id=":1927299095_0_0" index="0" disallow="tram rail_urban rail rail_electric ship" speed="13.89" length="4.82" shape="3279.04,3820.29 3279.06,3821.78 3278.61,3822.59 3277.70,3822.71 3276.32,3822.16"/>
    </edge>
    <edge id=":1927299100_0" function="internal">
        <lane id=":1927299100_0_0" index="0" disallow="tram rail_urban rail rail_electric ship" speed="13.89" length="4.82" shape="3134.25,3463.39 3134.26,3464.87 3133.80,3465.68 3132.89,3465.80 3131.51,3465.24"/>
    </edge>
    <edge id=":1927299218_0" function="internal">
        <lane id=":1927299218_0_0" index="0" disallow="tram rail_urban rail rail_electric ship" speed="13.89" length="4.82" shape="3087.51,3950.22 3087.49,3951.71 3087.03,3952.51 3086.11,3952.62 3084.75,3952.03"/>
    </edge>
    <edge id=":1927299250_0" function="internal">
        <lane id=":1927299250_0_0" index="0" disallow="tram rail_urban rail rail_electric ship" speed="20.84" length="5.01" shape="2907.22,3680.00 2906.29,3678.98 2905.26,3678.51 2904.13,3678.58 2902.90,3679.19"/>
    </edge>
    <edge id=":1927299250_1" function="internal">
        <lane id=":1927299250_1_0" index="0" disallow="tram rail_urban rail rail_electric ship" speed="13.89" length="4.82" shape="2907.22,3680.00 2907.20,3678.51 2907.65,3677.70 2908.56,3677.58 2909.94,3678.13"/>
    </edge>
    <edge id=":1927299250_2" function="internal">
        <lane id=":1927299250_2_0" index="0" disallow="tram rail_urban rail rail_electric ship" speed="20.84" length="5.01" shape="2910.76,3673.82 2909.74,3674.75 2909.26,3675.77 2909.33,3676.90 2909.94,3678.13"/>
    </edge>
    <edge id=":1927299250_3" function="internal">
        <lane id=":1927299250_3_0" index="0" disallow="tram rail_urban rail rail_electric ship" speed="27.78" length="9.52" shape="2910.76,3673.82 2902.90,3679.19"/>
    </edge>
    <edge id=":1927299379_0" function="internal">
        <lane id=":1927299379_0_0" index="0" disallow="tram rail_urban rail rail_electric ship" speed="13.89" length="5.13" shape="2955.37,3752.32 2954.47,3751.30 2953.43,3750.81 2952.25,3750.86 2950.93,3751.43"/>
    </edge>
    <edge id=":1927299379_1" function="internal">
        <lane id=":1927299379_1_0" index="0" disallow="tram rail_urban rail rail_electric ship" speed="13.89" length="9.50" shape="2955.37,3752.32 2950.22,3744.33"/>
    </edge>
    <edge id=":1927299379_2" function="internal">
        <lane id=":1927299379_2_0" index="0" disallow="tram rail_urban rail rail_electric ship" speed="13.89" length="2.41" shape="2955.37,3752.32 2955.39,3750.83 2955.86,3750.03"/>
    </edge>
    <edge id=":1927299379_9" function="internal">
        <lane id=":1927299379_9_0" index="0" speed="13.89" length="2.41" shape="2955.86,3750.03 2956.78,3749.93 2958.14,3750.53"/>
    </edge>
    <edge id=":1927299379_3" function="internal">
        <lane id=":1927299379_3_0" index="0" disallow="tram rail_urban rail rail_electric ship" speed="13.89" length="9.50" shape="2952.99,3742.54 2958.14,3750.53"/>
    </edge>
    <edge id=":1927299379_4" function="internal">
        <lane id=":1927299379_4_0" index="0" disallow="tram rail_urban rail rail_electric ship" speed="13.89" length="5.24" shape="2952.99,3742.54 2954.19,3745.16 2954.25,3747.52"/>
    </edge>
    <edge id=":1927299379_5" function="internal">
        <lane id=":1927299379_5_0" index="0" disallow="tram rail_urban rail rail_electric ship" speed="13.89" length="2.41" shape="2952.99,3742.54 2952.97,3744.03 2952.50,3744.82"/>
    </edge>
    <edge id=":1927299379_10" function="internal">
        <lane id=":1927299379_10_0" index="0" speed="13.89" length="5.24" shape="2954.25,3747.52 2953.17,3749.61 2950.93,3751.43"/>
    </edge>
    <edge id=":1927299379_11" function="internal">
        <lane id=":1927299379_11_0" index="0" speed="13.89" length="2.41" shape="2952.50,3744.82 2951.58,3744.92 2950.22,3744.33"/>
    </edge>
    <edge id=":1927299379_6" function="internal">
        <lane id=":1927299379_6_0" index="0" disallow="tram rail_urban rail rail_electric ship" speed="13.89" length="5.04" shape="2949.23,3748.60 2950.30,3747.73 2950.82,3746.72 2950.80,3745.59 2950.22,3744.33"/>
    </edge>
    <edge id=":1927299379_7" function="internal">
        <lane id=":1927299379_7_0" index="0" disallow="tram rail_urban rail rail_electric ship" speed="13.89" length="10.33" shape="2949.23,3748.60 2951.86,3747.47 2954.22,3747.42 2956.32,3748.44 2958.14,3750.53"/>
    </edge>
    <edge id=":1927299379_8" function="internal">
        <lane id=":1927299379_8_0" index="0" disallow="tram rail_urban rail rail_electric ship" speed="13.89" length="4.82" shape="2949.23,3748.60 2950.71,3748.67 2951.49,3749.16 2951.57,3750.08 2950.93,3751.43"/>
    </edge>
    <edge id=":1927299530_0" function="internal">
        <lane id=":1927299530_0_0" index="0" disallow="tram rail_urban rail rail_electric ship" speed="25.00" length="18.91" shape="2824.26,3755.44 2825.27,3759.07 2826.60,3762.92 2828.66,3767.34 2831.89,3772.63"/>
    </edge>
    <edge id=":1927299530_1" function="internal">
        <lane id=":1927299530_1_0" index="0" disallow="tram rail_urban rail rail_electric ship" speed="22.22" length="18.82" shape="2821.01,3757.25 2831.89,3772.63"/>
        <lane id=":1927299530_1_1" index="1" disallow="tram rail_urban rail rail_electric ship" speed="22.22" length="18.82" shape="2818.30,3759.14 2829.15,3774.48"/>
    </edge>
    <edge id=":1927300303_0" function="internal">
        <lane id=":1927300303_0_0" index="0" disallow="tram rail_urban rail rail_electric ship" speed="13.89" length="4.82" shape="3188.08,3883.30 3188.08,3884.79 3187.63,3885.59 3186.71,3885.71 3185.34,3885.14"/>
    </edge>
    <edge id=":1927300460_0" function="internal">
        <lane id=":1927300460_0_0" index="0" disallow="tram rail_urban rail rail_electric ship" speed="13.89" length="9.68" shape="2896.96,3787.91 2891.67,3779.81"/>
    </edge>
    <edge id=":1927300460_1" function="internal">
        <lane id=":1927300460_1_0" index="0" disallow="tram rail_urban rail rail_electric ship" speed="13.89" length="5.44" shape="2896.96,3787.91 2895.68,3785.28 2895.58,3782.91 2895.64,3782.79"/>
    </edge>
    <edge id=":1927300460_2" function="internal">
        <lane id=":1927300460_2_0" index="0" disallow="tram rail_urban rail rail_electric ship" speed="13.89" length="2.41" shape="2896.96,3787.91 2896.95,3786.42 2897.40,3785.62"/>
    </edge>
    <edge id=":1927300460_9" function="internal">
        <lane id=":1927300460_9_0" index="0" speed="13.89" length="5.16" shape="2895.64,3782.79 2896.66,3780.80 2898.93,3778.95"/>
    </edge>
    <edge id=":1927300460_10" function="internal">
        <lane id=":1927300460_10_0" index="0" speed="13.89" length="2.41" shape="2897.40,3785.62 2898.31,3785.50 2899.69,3786.06"/>
    </edge>
    <edge id=":1927300460_3" function="internal">
        <lane id=":1927300460_3_0" index="0" disallow="tram rail_urban rail rail_electric ship" speed="13.89" length="5.06" shape="2900.63,3781.77 2899.55,3782.66 2899.03,3783.67 2899.08,3784.80 2899.69,3786.06"/>
    </edge>
    <edge id=":1927300460_4" function="internal">
        <lane id=":1927300460_4_0" index="0" disallow="tram rail_urban rail rail_electric ship" speed="13.89" length="10.42" shape="2900.63,3781.77 2897.97,3782.92 2895.59,3782.97 2893.49,3781.94 2891.67,3779.81"/>
    </edge>
    <edge id=":1927300460_5" function="internal">
        <lane id=":1927300460_5_0" index="0" disallow="tram rail_urban rail rail_electric ship" speed="13.89" length="4.82" shape="2900.63,3781.77 2899.15,3781.71 2898.37,3781.21 2898.29,3780.29 2898.93,3778.95"/>
    </edge>
    <edge id=":1927300460_6" function="internal">
        <lane id=":1927300460_6_0" index="0" disallow="tram rail_urban rail rail_electric ship" speed="13.89" length="5.17" shape="2894.46,3778.05 2895.35,3779.09 2896.39,3779.58 2897.59,3779.53 2898.93,3778.95"/>
    </edge>
    <edge id=":1927300460_7" function="internal">
        <lane id=":1927300460_7_0" index="0" disallow="tram rail_urban rail rail_electric ship" speed="13.89" length="9.56" shape="2894.46,3778.05 2899.69,3786.06"/>
    </edge>
    <edge id=":1927300460_8" function="internal">
        <lane id=":1927300460_8_0" index="0" disallow="tram rail_urban rail rail_electric ship" speed="13.89" length="2.41" shape="2894.46,3778.05 2894.42,3779.54 2893.94,3780.33"/>
    </edge>
    <edge id=":1927300460_11" function="internal">
        <lane id=":1927300460_11_0" index="0" speed="13.89" length="2.41" shape="2893.94,3780.33 2893.02,3780.42 2891.67,3779.81"/>
    </edge>
    <edge id=":2139916166_0" function="internal">
        <lane id=":2139916166_0_0" index="0" disallow="tram rail_urban rail rail_electric ship" speed="13.89" length="4.82" shape="2303.61,2565.98 2303.59,2564.49 2304.04,2563.68 2304.96,2563.56 2306.33,2564.12"/>
    </edge>
    <edge id=":3100527167_0" function="internal">
        <lane id=":3100527167_0_0" index="0" disallow="tram rail_urban rail rail_electric ship" speed="13.89" length="3.55" shape="2926.15,3136.68 2925.90,3135.66 2925.67,3134.98 2925.34,3134.33 2924.77,3133.45"/>
    </edge>
    <edge id=":3100527167_1" function="internal">
        <lane id=":3100527167_1_0" index="0" disallow="tram rail_urban rail rail_electric ship" speed="13.89" length="2.53" shape="2927.54,3131.65 2927.52,3133.13 2927.06,3133.93 2926.94,3133.94"/>
    </edge>
    <edge id=":3100527167_2" function="internal">
        <lane id=":3100527167_2_0" index="0" speed="13.89" length="2.29" shape="2926.94,3133.94 2926.14,3134.04 2924.77,3133.45"/>
    </edge>
    <edge id=":3100527169_0" function="internal">
        <lane id=":3100527169_0_0" index="0" disallow="tram rail_urban rail rail_electric ship" speed="13.89" length="5.01" shape="2825.53,2984.07 2824.60,2983.05 2823.57,2982.58 2822.44,2982.66 2821.21,2983.28"/>
    </edge>
    <edge id=":3100527169_1" function="internal">
        <lane id=":3100527169_1_0" index="0" disallow="tram rail_urban rail rail_electric ship" speed="13.89" length="10.29" shape="2825.53,2984.07 2824.27,2981.53 2824.10,2979.19 2825.02,2977.05 2827.02,2975.12"/>
    </edge>
    <edge id=":3100527169_2" function="internal">
        <lane id=":3100527169_2_0" index="0" disallow="tram rail_urban rail rail_electric ship" speed="13.89" length="4.82" shape="2825.53,2984.07 2825.51,2982.58 2825.96,2981.78 2826.88,2981.66 2828.26,2982.22"/>
    </edge>
    <edge id=":3100527169_3" function="internal">
        <lane id=":3100527169_3_0" index="0" disallow="tram rail_urban rail rail_electric ship" speed="13.89" length="5.07" shape="2828.95,2977.80 2827.97,2978.74 2827.53,2979.79 2827.63,2980.95 2828.26,2982.22"/>
    </edge>
    <edge id=":3100527169_4" function="internal">
        <lane id=":3100527169_4_0" index="0" disallow="tram rail_urban rail rail_electric ship" speed="13.89" length="9.48" shape="2828.95,2977.80 2821.21,2983.28"/>
    </edge>
    <edge id=":3100527169_5" function="internal">
        <lane id=":3100527169_5_0" index="0" disallow="tram rail_urban rail rail_electric ship" speed="13.89" length="2.41" shape="2828.95,2977.80 2827.46,2977.85 2826.64,2977.42"/>
    </edge>
    <edge id=":3100527169_9" function="internal">
        <lane id=":3100527169_9_0" index="0" speed="13.89" length="2.41" shape="2826.64,2977.42 2826.50,2976.51 2827.02,2975.12"/>
    </edge>
    <edge id=":3100527169_6" function="internal">
        <lane id=":3100527169_6_0" index="0" disallow="tram rail_urban rail rail_electric ship" speed="13.89" length="9.43" shape="2819.33,2980.57 2827.02,2975.12"/>
    </edge>
    <edge id=":3100527169_7" function="internal">
        <lane id=":3100527169_7_0" index="0" disallow="tram rail_urban rail rail_electric ship" speed="13.89" length="5.19" shape="2819.33,2980.57 2821.87,2979.29 2824.21,2979.13"/>
    </edge>
    <edge id=":3100527169_8" function="internal">
        <lane id=":3100527169_8_0" index="0" disallow="tram rail_urban rail rail_electric ship" speed="13.89" length="2.41" shape="2819.33,2980.57 2820.81,2980.54 2821.62,2980.98"/>
    </edge>
    <edge id=":3100527169_10" function="internal">
        <lane id=":3100527169_10_0" index="0" speed="13.89" length="5.19" shape="2824.21,2979.13 2826.34,2980.11 2828.26,2982.22"/>
    </edge>
    <edge id=":3100527169_11" function="internal">
        <lane id=":3100527169_11_0" index="0" speed="13.89" length="2.41" shape="2821.62,2980.98 2821.76,2981.89 2821.21,2983.28"/>
    </edge>
    <edge id=":3100527176_0" function="internal">
        <lane id=":3100527176_0_0" index="0" disallow="tram rail_urban rail rail_electric ship" speed="13.89" length="4.82" shape="3179.23,2853.66 3180.71,2853.64 3181.52,2854.09 3181.64,2855.01 3181.09,2856.38"/>
    </edge>
    <edge id=":3100527192_0" function="internal">
        <lane id=":3100527192_0_0" index="0" disallow="tram rail_urban rail rail_electric ship" speed="13.89" length="4.82" shape="3457.43,2538.09 3458.90,2537.85 3459.76,2538.16 3460.03,2539.05 3459.69,2540.50"/>
    </edge>
    <edge id=":3100527193_0" function="internal">
        <lane id=":3100527193_0_0" index="0" disallow="tram rail_urban rail rail_electric ship" speed="8.33" length="4.82" shape="1866.66,2168.10 1866.63,2166.62 1867.07,2165.81 1867.99,2165.68 1869.37,2166.22"/>
    </edge>
    <edge id=":3123715399_0" function="internal">
        <lane id=":3123715399_0_0" index="0" disallow="tram rail_urban rail rail_electric ship" speed="13.89" length="9.50" shape="2880.22,3065.04 2875.04,3057.09"/>
    </edge>
    <edge id=":3123715399_1" function="internal">
        <lane id=":3123715399_1_0" index="0" disallow="tram rail_urban rail rail_electric ship" speed="13.89" length="5.23" shape="2880.22,3065.04 2879.05,3062.51 2878.97,3060.18 2879.02,3060.08"/>
    </edge>
    <edge id=":3123715399_2" function="internal">
        <lane id=":3123715399_2_0" index="0" disallow="tram rail_urban rail rail_electric ship" speed="13.89" length="2.41" shape="2880.22,3065.04 2880.24,3063.56 2880.70,3062.76"/>
    </edge>
    <edge id=":3123715399_9" function="internal">
        <lane id=":3123715399_9_0" index="0" speed="13.89" length="5.10" shape="2879.02,3060.08 2879.99,3058.06 2882.10,3056.14"/>
    </edge>
    <edge id=":3123715399_10" function="internal">
        <lane id=":3123715399_10_0" index="0" speed="13.89" length="2.41" shape="2880.70,3062.76 2881.62,3062.66 2882.99,3063.24"/>
    </edge>
    <edge id=":3123715399_3" function="internal">
        <lane id=":3123715399_3_0" index="0" disallow="tram rail_urban rail rail_electric ship" speed="13.89" length="5.08" shape="2883.96,3058.87 2882.91,3059.82 2882.39,3060.87 2882.42,3062.01 2882.99,3063.24"/>
    </edge>
    <edge id=":3123715399_4" function="internal">
        <lane id=":3123715399_4_0" index="0" disallow="tram rail_urban rail rail_electric ship" speed="13.89" length="10.43" shape="2883.96,3058.87 2881.39,3060.13 2879.04,3060.26 2876.93,3059.24 2875.04,3057.09"/>
    </edge>
    <edge id=":3123715399_5" function="internal">
        <lane id=":3123715399_5_0" index="0" disallow="tram rail_urban rail rail_electric ship" speed="13.89" length="4.82" shape="2883.96,3058.87 2882.47,3058.89 2881.67,3058.44 2881.54,3057.52 2882.10,3056.14"/>
    </edge>
    <edge id=":3123715399_6" function="internal">
        <lane id=":3123715399_6_0" index="0" disallow="tram rail_urban rail rail_electric ship" speed="13.89" length="5.02" shape="2877.80,3055.28 2878.71,3056.32 2879.73,3056.81 2880.86,3056.75 2882.10,3056.14"/>
    </edge>
    <edge id=":3123715399_7" function="internal">
        <lane id=":3123715399_7_0" index="0" disallow="tram rail_urban rail rail_electric ship" speed="13.89" length="9.50" shape="2877.80,3055.28 2882.99,3063.24"/>
    </edge>
    <edge id=":3123715399_8" function="internal">
        <lane id=":3123715399_8_0" index="0" disallow="tram rail_urban rail rail_electric ship" speed="13.89" length="2.41" shape="2877.80,3055.28 2877.79,3056.77 2877.32,3057.57"/>
    </edge>
    <edge id=":3123715399_11" function="internal">
        <lane id=":3123715399_11_0" index="0" speed="13.89" length="2.41" shape="2877.32,3057.57 2876.40,3057.67 2875.04,3057.09"/>
    </edge>
    <edge id=":3128249012_0" function="internal">
        <lane id=":3128249012_0_0" index="0" disallow="tram rail_urban rail rail_electric ship" speed="25.00" length="90.21" shape="2744.65,3640.51 2752.69,3653.67 2769.34,3678.17 2786.40,3702.44 2795.68,3714.86"/>
    </edge>
    <edge id=":3128249012_1" function="internal">
        <lane id=":3128249012_1_0" index="0" disallow="tram rail_urban rail rail_electric ship" speed="22.22" length="90.60" shape="2744.65,3640.51 2751.97,3653.35 2767.20,3677.53 2783.25,3702.34 2793.03,3717.09"/>
    </edge>
    <edge id=":3128249012_2" function="internal">
        <lane id=":3128249012_2_0" index="0" disallow="tram rail_urban rail rail_electric ship" speed="25.00" length="90.46" shape="2741.45,3642.46 2751.82,3656.75 2769.36,3680.43 2786.51,3703.22 2795.68,3714.86"/>
    </edge>
    <edge id=":3128249012_3" function="internal">
        <lane id=":3128249012_3_0" index="0" disallow="tram rail_urban rail rail_electric ship" speed="22.22" length="90.73" shape="2741.45,3642.46 2793.03,3717.09"/>
        <lane id=":3128249012_3_1" index="1" disallow="tram rail_urban rail rail_electric ship" speed="22.22" length="90.73" shape="2738.73,3644.33 2790.32,3718.97"/>
    </edge>
    <edge id=":3128249023_0" function="internal">
        <lane id=":3128249023_0_0" index="0" allow="private emergency authority army vip passenger hov taxi bus coach delivery truck trailer motorcycle evehicle custom1 custom2" speed="22.22" length="4.91" shape="2373.69,3619.03 2370.09,3622.35"/>
    </edge>
    <edge id=":3128249024_0" function="internal">
        <lane id=":3128249024_0_0" index="0" allow="private emergency authority army vip passenger hov taxi bus coach delivery truck trailer motorcycle evehicle custom1 custom2" speed="22.22" length="14.85" shape="2437.35,3199.00 2440.34,3202.58 2443.11,3204.80 2445.86,3206.44 2448.77,3208.25"/>
    </edge>
    <edge id=":3128249024_1" function="internal">
        <lane id=":3128249024_1_0" index="0" disallow="tram rail_urban rail rail_electric ship" speed="22.22" length="14.36" shape="2437.35,3199.00 2445.82,3210.58"/>
        <lane id=":3128249024_1_1" index="1" disallow="tram rail_urban rail rail_electric ship" speed="22.22" length="14.36" shape="2434.64,3200.90 2443.14,3212.50"/>
    </edge>
    <edge id=":3128249244_0" function="internal">
        <lane id=":3128249244_0_0" index="0" allow="private emergency authority army vip passenger hov taxi bus coach delivery truck trailer motorcycle evehicle custom1 custom2" speed="22.22" length="3.16" shape="2553.54,3249.07 2556.41,3247.88"/>
        <lane id=":3128249244_0_1" index="1" allow="private emergency authority army vip passenger hov taxi bus coach delivery truck trailer motorcycle evehicle custom1 custom2" speed="22.22" length="3.16" shape="2553.54,3249.07 2555.98,3251.16"/>
    </edge>
    <edge id=":3128249262_0" function="internal">
        <lane id=":3128249262_0_0" index="0" disallow="tram rail_urban rail rail_electric ship" speed="22.22" length="69.64" shape="2553.58,3341.73 2591.04,3400.43"/>
        <lane id=":3128249262_0_1" index="1" disallow="tram rail_urban rail rail_electric ship" speed="22.22" length="69.64" shape="2550.83,3343.56 2588.31,3402.27"/>
    </edge>
    <edge id=":3128249262_2" function="internal">
        <lane id=":3128249262_2_0" index="0" disallow="tram rail_urban rail rail_electric ship" speed="22.22" length="69.57" shape="2548.06,3345.56 2591.04,3400.43"/>
        <lane id=":3128249262_2_1" index="1" disallow="tram rail_urban rail rail_electric ship" speed="22.22" length="69.57" shape="2545.47,3347.61 2588.31,3402.27"/>
    </edge>
    <edge id=":3128376030_0" function="internal">
        <lane id=":3128376030_0_0" index="0" allow="private emergency authority army vip passenger hov taxi bus coach delivery truck trailer motorcycle evehicle custom1 custom2" speed="22.22" length="0.10" shape="2514.59,3627.58 2514.50,3627.56"/>
        <lane id=":3128376030_0_1" index="1" allow="private emergency authority army vip passenger hov taxi bus coach delivery truck trailer motorcycle evehicle custom1 custom2" speed="22.22" length="0.10" shape="2515.05,3624.31 2515.14,3624.32"/>
    </edge>
    <edge id=":3128376037_0" function="internal">
        <lane id=":3128376037_0_0" index="0" disallow="tram rail_urban rail rail_electric ship" speed="22.22" length="25.90" shape="2744.94,3740.03 2740.76,3734.67 2736.57,3730.43 2731.91,3726.65 2726.35,3722.68"/>