<?xml version="1.0" encoding="UTF-8"?>

<!-- generated on 16/05/2018 14:18:53 by Netedit Version 0.32.0
<?xml version="1.0" encoding="UTF-8"?>

<configuration xmlns:xsi="http://www.w3.org/2001/XMLSchema-instance" xsi:noNamespaceSchemaLocation="http://sumo.dlr.de/xsd/netconvertConfiguration.xsd">

    <input>
        <sumo-net-file value="C:\Users\Abel\Documents\School\Year%202\Project%202-2\MapXmls\Turbine%202\Turbine2.net.xml"/>
    </input>

    <output>
        <output-file value="C:\Users\Abel\Documents\School\Year%202\Project%202-2\MapXmls\Turbine%202\Turbine2.net.xml"/>
        <plain-output-prefix value="C:\Users\Abel\Documents\School\Year%202\Project%202-2\MapXmls\Turbine%202\Turbine2"/>
    </output>

    <processing>
        <no-turnarounds value="true"/>
        <offset.disable-normalization value="true"/>
        <lefthand value="false"/>
        <junctions.corner-detail value="0"/>
        <rectangular-lane-cut value="false"/>
        <walkingareas value="false"/>
    </processing>

</configuration>
-->

<edges version="0.27" xmlns:xsi="http://www.w3.org/2001/XMLSchema-instance" xsi:noNamespaceSchemaLocation="http://sumo.dlr.de/xsd/edges_file.xsd">
    <edge id="-182386603#0" from="1927299379" to="1927299250" priority="4" type="highway.residential" numLanes="1" speed="13.89" shape="2954.23,3747.51 2933.77,3715.81 2906.81,3676.49" disallow="tram rail_urban rail rail_electric ship"/>
    <edge id="-182386603#1" from="1927299218" to="1927299379" priority="4" type="highway.residential" numLanes="1" speed="13.89" shape="3086.13,3951.13 3052.85,3900.30 3049.44,3895.02 2954.23,3747.51" disallow="tram rail_urban rail rail_electric ship"/>
    <edge id="-210481593#0" from="1927300460" to="1927298908" priority="4" type="highway.residential" numLanes="1" speed="13.89" disallow="tram rail_urban rail rail_electric ship"/>
    <edge id="-210481593#1" from="1927299379" to="1927300460" priority="4" type="highway.residential" numLanes="1" speed="13.89" disallow="tram rail_urban rail rail_electric ship"/>
    <edge id="-244671310#0" from="3136844101" to="3100527193" priority="4" type="highway.residential" numLanes="1" speed="8.33" shape="2483.31,3053.23 2390.84,2920.06 2296.31,2783.93 2202.00,2648.12 2105.72,2509.43 2011.75,2374.19 1917.96,2239.08 1868.01,2167.16" disallow="tram rail_urban rail rail_electric ship"/>
    <edge id="-244671310#1" from="4885974385" to="3136844101" priority="4" type="highway.residential" numLanes="1" speed="8.33" disallow="tram rail_urban rail rail_electric ship"/>
    <edge id="-305425748#0" from="3123715399" to="3100527167" priority="5" type="highway.unclassified" numLanes="1" speed="13.89" disallow="tram rail_urban rail rail_electric ship"/>
    <edge id="-305425748#1" from="3100527169" to="3123715399" priority="5" type="highway.unclassified" numLanes="1" speed="13.89" shape="2824.20,2979.18 2874.26,3052.88 2879.05,3060.22" disallow="tram rail_urban rail rail_electric ship"/>
    <edge id="-305425755#0" from="3100527169" to="3100527192" priority="5" type="highway.unclassified" numLanes="1" speed="13.89" shape="2824.20,2979.18 2863.42,2950.93 2897.86,2926.13 2938.76,2896.67 2981.99,2865.55 3130.78,2758.40 3215.66,2697.27 3291.08,2651.47 3349.38,2616.06 3453.82,2543.75 3458.56,2539.29" disallow="tram rail_urban rail rail_electric ship"/>
    <edge id="-305425755#1" from="837957503" to="3100527169" priority="5" type="highway.unclassified" numLanes="1" speed="13.89" disallow="tram rail_urban rail rail_electric ship"/>
    <edge id="-307283000" from="3123715399" to="3100527176" priority="5" type="highway.unclassified" numLanes="1" speed="13.89" shape="2879.05,3060.22 3040.32,2950.32 3180.16,2855.02" disallow="tram rail_urban rail rail_electric ship"/>
    <edge id="-307673022" from="837956453" to="3128777948" priority="4" type="highway.residential" numLanes="1" speed="13.89" shape="2648.15,3104.19 2613.05,3128.64 2598.18,3137.77 2582.40,3145.60" disallow="tram rail_urban rail rail_electric ship"/>
    <edge id="-307673102#0" from="3128779480" to="837956453" priority="4" type="highway.residential" numLanes="1" speed="13.89" disallow="tram rail_urban rail rail_electric ship"/>
    <edge id="-307673102#1" from="837957503" to="3128779480" priority="4" type="highway.residential" numLanes="1" speed="13.89" shape="2699.92,3065.87 2676.36,3082.81 2664.37,3091.59" disallow="tram rail_urban rail rail_electric ship"/>
    <edge id="-307673829" from="3128785952" to="3128786021" priority="5" type="highway.unclassified" numLanes="1" speed="13.89" shape="2812.12,3379.59 2823.58,3343.47 2835.48,3321.04 2847.96,3302.63 2868.92,3279.68 2926.21,3235.77 2936.98,3232.69 2950.74,3231.19 2962.65,3233.47 2970.80,3237.94 2981.95,3243.72 2991.78,3253.81 3032.75,3316.46" disallow="tram rail_urban rail rail_electric ship"/>
    <edge id="-307673834" from="3128785975" to="3128786002" priority="6" type="highway.secondary_link" numLanes="1" speed="22.22" disallow="tram rail_urban rail rail_electric ship"/>
    <edge id="-307673838" from="3128786021" to="1927299100" priority="5" type="highway.unclassified" numLanes="1" speed="13.89" disallow="tram rail_urban rail rail_electric ship"/>
    <edge id="-496943808" from="4885899635" to="4885899692" priority="4" type="highway.residential" numLanes="1" speed="13.89" shape="3306.07,2982.53 3030.49,3170.51 3028.11,3174.16 3027.62,3179.00 3028.90,3184.36 3060.38,3226.68" disallow="tram rail_urban rail rail_electric ship"/>
    <edge id="-496943819" from="4885899658" to="4885899678" priority="4" type="highway.residential" numLanes="1" speed="13.89" shape="3075.18,3250.98 3117.66,3313.66 3155.85,3371.24 3161.27,3376.94 3167.54,3380.70 3174.84,3382.74 3184.06,3382.64 3191.97,3380.21 3417.07,3229.96 3462.31,3199.76 3507.44,3169.64 3695.97,3043.80 3755.51,3004.07 3759.64,2999.05 3763.10,2993.90 3764.80,2989.19 3765.39,2982.47 3765.19,2976.70 3762.83,2970.81 3737.00,2933.23 3731.56,2929.13 3726.40,2927.31 3559.21,2902.91 3548.95,2903.30 3541.71,2907.15 3398.39,3005.50 3352.85,3036.77 3308.32,3067.33 3080.94,3223.40" disallow="tram rail_urban rail rail_electric ship"/>
    <edge id="-496943826" from="4885899683" to="4885899685" priority="4" type="highway.residential" numLanes="1" speed="13.89" shape="3041.51,3249.56 3025.43,3258.04 3018.50,3260.83 3011.02,3261.93 3002.03,3262.16" disallow="tram rail_urban rail rail_electric ship"/>
    <edge id="-496948748" from="4885974382" to="3136844101" priority="4" type="highway.residential" numLanes="1" speed="13.89" disallow="tram rail_urban rail rail_electric ship"/>
    <edge id="-496983625#0" from="885260893" to="885260643" priority="5" type="highway.unclassified" numLanes="1" speed="13.89" disallow="tram rail_urban rail rail_electric ship"/>
    <edge id="-496983625#1" from="885260896" to="885260893" priority="5" type="highway.unclassified" numLanes="1" speed="13.89" disallow="tram rail_urban rail rail_electric ship"/>
    <edge id="-496983642" from="1927300460" to="4886240671" priority="4" type="highway.residential" numLanes="1" speed="13.89" shape="2895.56,3782.91 2988.53,3919.91 2990.41,3923.39 2990.66,3926.08 2989.71,3928.71 2951.10,3952.66" disallow="tram rail_urban rail rail_electric ship"/>
    <edge id="-496983645" from="1927299095" to="4886240676" priority="4" type="highway.residential" numLanes="1" speed="13.89" shape="3277.68,3821.23 3158.52,3647.86 3092.40,3551.64" disallow="tram rail_urban rail rail_electric ship"/>
    <edge id="-496983646" from="1927300303" to="4886240677" priority="4" type="highway.residential" numLanes="1" speed="13.89" shape="3186.71,3884.22 3148.52,3827.29 3004.35,3612.37" disallow="tram rail_urban rail rail_electric ship"/>
    <edge id="-500796792#0" from="3128779482" to="837956453" priority="2" type="highway.service" numLanes="1" speed="5.56" allow="delivery bicycle pedestrian"/>
    <edge id="-500796792#1" from="3128779478" to="3128779482" priority="2" type="highway.service" numLanes="1" speed="5.56" shape="2571.38,3193.94 2567.15,3179.23 2643.01,3128.92" allow="delivery bicycle pedestrian"/>
    <edge id="-500796792#2" from="3128779482" to="3128779478" priority="2" type="highway.service" numLanes="1" speed="5.56" shape="2643.01,3128.92 2627.63,3199.47 2571.38,3193.94" allow="delivery bicycle pedestrian"/>
    <edge id="-502116282" from="4926955352" to="4926955351" priority="2" type="highway.service" numLanes="1" speed="5.56" allow="delivery bicycle pedestrian"/>
    <edge id="-502116284" from="4886080584" to="4926955353" priority="2" type="highway.service" numLanes="1" speed="5.56" allow="delivery bicycle pedestrian"/>
    <edge id="-70174645#0" from="4885974382" to="3128779480" priority="4" type="highway.residential" numLanes="1" speed="13.89" shape="2591.73,2985.15 2602.01,3000.23 2629.85,3041.01 2664.37,3091.59" disallow="tram rail_urban rail rail_electric ship"/>
    <edge id="-70174645#1" from="2139916166" to="4885974382" priority="4" type="highway.residential" numLanes="1" speed="13.89" shape="2304.97,2565.05 2310.96,2573.83 2327.54,2598.12 2400.51,2705.01 2405.06,2711.68 2428.42,2745.91 2456.48,2787.02 2498.82,2849.04 2591.73,2985.15" disallow="tram rail_urban rail rail_electric ship"/>
    <edge id="-74944731#0" from="884974172" to="884968385" priority="5" type="highway.unclassified" numLanes="1" speed="13.89" shape="1944.79,3374.10 1868.93,3262.12 1805.04,3167.81" disallow="tram rail_urban rail rail_electric ship"/>
    <edge id="-74944731#1" from="884973171" to="884974172" priority="5" type="highway.unclassified" numLanes="1" speed="13.89" disallow="tram rail_urban rail rail_electric ship"/>
    <edge id="-74944731#2" from="885107809" to="884973171" priority="5" type="highway.unclassified" numLanes="1" speed="13.89" shape="2173.50,3705.03 2161.38,3692.07 2064.99,3551.50" disallow="tram rail_urban rail rail_electric ship"/>
    <edge id="-74944735#0" from="884974256" to="884971008" priority="5" type="highway.unclassified" numLanes="1" speed="13.89" shape="2001.35,3206.40 1984.79,3181.74 1922.48,3088.91" disallow="tram rail_urban rail rail_electric ship"/>
    <edge id="-74944735#1" from="884973294" to="884974256" priority="5" type="highway.unclassified" numLanes="1" speed="13.89" disallow="tram rail_urban rail rail_electric ship"/>
    <edge id="-74944735#2" from="884976942" to="884973294" priority="5" type="highway.unclassified" numLanes="1" speed="13.89" disallow="tram rail_urban rail rail_electric ship"/>
    <edge id="-74944735#3" from="884972341" to="884976942" priority="5" type="highway.unclassified" numLanes="1" speed="13.89" disallow="tram rail_urban rail rail_electric ship"/>
    <edge id="-74944735#4" from="885137071" to="884972341" priority="5" type="highway.unclassified" numLanes="1" speed="13.89" shape="2271.39,3606.55 2267.89,3603.12 2181.53,3474.81" disallow="tram rail_urban rail rail_electric ship"/>
    <edge id="-74944736" from="884973171" to="884972341" priority="5" type="highway.unclassified" numLanes="1" speed="13.89" disallow="tram rail_urban rail rail_electric ship"/>
    <edge id="-74944747" from="884974172" to="884973294" priority="5" type="highway.unclassified" numLanes="1" speed="13.89" shape="1944.79,3374.10 1999.98,3335.37 2059.76,3293.41" disallow="tram rail_urban rail rail_electric ship"/>
    <edge id="-74944787#0" from="884975549" to="884974256" priority="5" type="highway.unclassified" numLanes="1" speed="13.89" disallow="tram rail_urban rail rail_electric ship"/>
    <edge id="-74944787#1" from="884975555" to="884975549" priority="5" type="highway.unclassified" numLanes="1" speed="13.89" disallow="tram rail_urban rail rail_electric ship"/>
    <edge id="-74944839#0" from="884976384" to="884975549" priority="5" type="highway.unclassified" numLanes="1" speed="13.89" disallow="tram rail_urban rail rail_electric ship"/>
    <edge id="-74944839#1" from="884976390" to="884976384" priority="5" type="highway.unclassified" numLanes="1" speed="13.89" disallow="tram rail_urban rail rail_electric ship"/>
    <edge id="-74944879" from="884976942" to="884976384" priority="5" type="highway.unclassified" numLanes="1" speed="13.89" disallow="tram rail_urban rail rail_electric ship"/>
    <edge id="-74964403#0" from="885254069" to="885252404" priority="5" type="highway.unclassified" numLanes="1" speed="13.89" disallow="tram rail_urban rail rail_electric ship"/>
    <edge id="-74964403#1" from="885260643" to="885254069" priority="5" type="highway.unclassified" numLanes="1" speed="13.89" disallow="tram rail_urban rail rail_electric ship"/>
    <edge id="-74964403#2" from="885260259" to="885260643" priority="5" type="highway.unclassified" numLanes="1" speed="13.89" shape="2314.94,3920.41 2319.81,3917.04 2435.47,3838.49" disallow="tram rail_urban rail rail_electric ship"/>
    <edge id="-74964403#3" from="885252824" to="885260259" priority="5" type="highway.unclassified" numLanes="1" speed="13.89" shape="2584.49,4416.36 2503.74,4298.76 2389.20,4131.94 2346.63,4070.99 2325.71,4042.42 2282.91,3983.99 2275.79,3971.50 2273.18,3958.83 2277.36,3949.08 2288.70,3939.88 2314.94,3920.41" disallow="tram rail_urban rail rail_electric ship"/>
    <edge id="-74964403#4" from="885252455" to="885252824" priority="5" type="highway.unclassified" numLanes="1" speed="13.89" disallow="tram rail_urban rail rail_electric ship"/>
    <edge id="-74964662" from="885254069" to="885252824" priority="5" type="highway.unclassified" numLanes="1" speed="13.89" shape="2578.71,3747.35 2660.54,3861.02 2818.39,4092.59 2880.13,4181.52 2884.83,4191.68 2886.86,4200.71 2885.99,4209.35 2881.79,4216.59 2874.40,4223.55 2699.66,4339.38 2584.49,4416.36" disallow="tram rail_urban rail rail_electric ship"/>
    <edge id="-74965693" from="3128376535" to="885260259" priority="5" type="highway.unclassified" numLanes="1" speed="13.89" shape="2200.84,3759.12 2213.99,3775.06 2314.94,3920.41" disallow="tram rail_urban rail rail_electric ship"/>
    <edge id="-74965813" from="885261196" to="885260893" priority="5" type="highway.unclassified" numLanes="1" speed="13.89" disallow="tram rail_urban rail rail_electric ship"/>
    <edge id="103341400" from="1193454337" to="1193454525" priority="12" type="highway.motorway_link" numLanes="1" speed="22.22" spreadType="center" allow="private emergency authority army vip passenger hov taxi bus coach delivery truck trailer motorcycle evehicle custom1 custom2"/>
    <edge id="171699577" from="1826913496" to="1826913331" priority="12" type="highway.motorway_link" numLanes="1" speed="22.22" spreadType="center" allow="private emergency authority army vip passenger hov taxi bus coach delivery truck trailer motorcycle evehicle custom1 custom2"/>
    <edge id="171699626#0" from="1826913276" to="3128376573" priority="13" type="highway.motorway" numLanes="1" speed="44.44" shape="0.00,5509.85 37.45,5492.57 82.46,5475.97 124.90,5459.47 171.88,5440.11 216.39,5420.26 258.33,5399.70 297.57,5379.07 340.85,5354.82 372.93,5336.93 399.89,5320.85 414.49,5312.14 444.15,5293.95 659.19,5154.92 740.17,5102.56 830.72,5045.23 901.03,4999.56 985.91,4941.37 1182.25,4805.95 1361.51,4684.00 1479.38,4603.81 1571.58,4540.96 1705.37,4449.77 1734.96,4428.05 1761.30,4406.00 1788.19,4381.18 1812.88,4356.67 1840.93,4326.27 1868.58,4290.96 1888.73,4262.99 1908.97,4231.08 1927.76,4198.81 1947.01,4162.84 2022.08,3997.21 2054.62,3926.65 2058.14,3919.04 2075.10,3883.71 2076.33,3881.12 2099.53,3837.12 2117.89,3806.77" spreadType="center" allow="private emergency authority army vip passenger hov taxi bus coach delivery truck trailer motorcycle evehicle custom1 custom2"/>
    <edge id="171699626#1" from="3128376573" to="865169500" priority="13" type="highway.motorway" numLanes="1" speed="44.44" shape="2117.89,3806.77 2155.43,3756.64 2181.59,3725.13 2210.30,3694.22 2235.72,3667.81 2259.55,3646.09 2287.90,3622.16 2318.62,3596.55 2363.96,3559.94 2465.63,3494.87" spreadType="center" allow="private emergency authority army vip passenger hov taxi bus coach delivery truck trailer motorcycle evehicle custom1 custom2"/>
    <edge id="182386561#0" from="1927299647" to="4886240676" priority="7" type="highway.secondary" numLanes="1" speed="27.78" shape="3147.43,3523.73 3138.69,3524.89 3126.86,3529.05 3115.60,3535.63 3092.40,3551.64" spreadType="center" disallow="tram rail_urban rail rail_electric ship"/>
    <edge id="182386561#1" from="4886240676" to="4886240677" priority="7" type="highway.secondary" numLanes="1" speed="27.78" shape="3092.40,3551.64 3077.79,3561.72 3032.29,3594.35 3028.48,3596.92 3004.35,3612.37" spreadType="center" disallow="tram rail_urban rail rail_electric ship"/>
    <edge id="182386561#2" from="4886240677" to="1927299250" priority="7" type="highway.secondary" numLanes="1" speed="27.78" shape="3004.35,3612.37 2953.80,3644.73 2906.81,3676.49" spreadType="center" disallow="tram rail_urban rail rail_electric ship"/>
    <edge id="182386561#3" from="1927299250" to="3128785975" priority="7" type="highway.secondary" numLanes="1" speed="27.78" spreadType="center" disallow="tram rail_urban rail rail_electric ship"/>
    <edge id="182386561#4" from="3128785975" to="1927298908" priority="7" type="highway.secondary" numLanes="1" speed="27.78" spreadType="center" disallow="tram rail_urban rail rail_electric ship"/>
    <edge id="182386561#5" from="1927298908" to="1927299530" priority="7" type="highway.secondary" numLanes="1" speed="27.78" shape="2852.09,3713.63 2831.54,3729.99 2827.30,3734.52 2824.57,3740.50 2823.45,3746.22 2823.44,3752.41 2825.03,3758.29 2835.20,3780.50" spreadType="center" disallow="tram rail_urban rail rail_electric ship"/>
    <edge id="182386602#0" from="3128249012" to="3128786002" priority="7" type="highway.secondary" numLanes="1" speed="27.78" shape="2775.57,3694.91 2797.42,3716.59 2802.10,3719.05 2807.30,3720.61 2813.31,3720.74 2818.48,3719.61 2844.57,3704.53 2860.18,3694.11" spreadType="center" disallow="tram rail_urban rail rail_electric ship"/>
    <edge id="182386602#1" from="3128786002" to="1927300185" priority="7" type="highway.secondary" numLanes="1" speed="27.78" shape="2860.18,3694.11 2876.26,3683.25 3075.80,3549.79 3118.12,3520.29 3123.99,3514.32 3129.05,3507.55 3131.93,3498.15" spreadType="center" disallow="tram rail_urban rail rail_electric ship"/>
    <edge id="182386603#0" from="1927299250" to="1927299379" priority="4" type="highway.residential" numLanes="1" speed="13.89" shape="2906.81,3676.49 2933.77,3715.81 2954.23,3747.51" disallow="tram rail_urban rail rail_electric ship"/>
    <edge id="182386603#1" from="1927299379" to="1927299218" priority="4" type="highway.residential" numLanes="1" speed="13.89" shape="2954.23,3747.51 3049.44,3895.02 3052.85,3900.30 3086.13,3951.13" disallow="tram rail_urban rail rail_electric ship"/>
    <edge id="210481593#0" from="1927298908" to="1927300460" priority="4" type="highway.residential" numLanes="1" speed="13.89" disallow="tram rail_urban rail rail_electric ship"/>
    <edge id="210481593#1" from="1927300460" to="1927299379" priority="4" type="highway.residential" numLanes="1" speed="13.89" disallow="tram rail_urban rail rail_electric ship"/>
    <edge id="244671310#0" from="3100527193" to="3136844101" priority="4" type="highway.residential" numLanes="1" speed="8.33" shape="1868.01,2167.16 1917.96,2239.08 2011.75,2374.19 2105.72,2509.43 2202.00,2648.12 2296.31,2783.93 2390.84,2920.06 2483.31,3053.23" disallow="tram rail_urban rail rail_electric ship"/>
    <edge id="244671310#1" from="3136844101" to="4885974385" priority="4" type="highway.residential" numLanes="1" speed="8.33" disallow="tram rail_urban rail rail_electric ship"/>
    <edge id="245390383#0" from="31380211" to="3128376053" priority="13" type="highway.motorway" numLanes="1" speed="44.44" shape="4105.76,0.00 4057.31,24.50 3994.01,63.92 3953.81,89.73 3924.67,114.94 3901.07,135.24 3801.75,216.90 3763.74,258.58 3741.60,296.22 3714.32,355.32 3683.20,437.25 3633.07,580.92 3619.37,669.15 3611.40,748.88 3613.99,811.71 3616.94,864.76 3625.28,923.15 3638.78,978.86 3651.62,1036.59 3673.29,1096.91 3690.06,1142.48 3718.44,1198.02 3748.62,1253.19 3823.27,1369.11 3875.73,1441.60 3921.40,1502.05 3957.65,1554.89 4001.37,1626.94 4022.05,1670.40 4032.83,1693.05 4067.82,1788.76 4078.43,1829.93 4091.43,1897.98 4097.01,1961.85 4098.80,2032.17 4094.71,2072.57 4093.08,2088.65 4081.01,2158.27 4068.47,2209.88 4063.21,2226.74 4048.45,2274.11 4018.99,2339.76 3997.13,2379.90 3991.21,2390.76 3976.33,2414.99 3962.66,2436.44 3925.84,2484.73 3881.75,2533.07 3850.58,2563.86 3803.74,2602.70 3755.02,2636.94 3308.29,2940.68 3307.54,2941.19 3187.06,3024.15 3164.28,3039.84" spreadType="center" allow="private emergency authority army vip passenger hov taxi bus coach delivery truck trailer motorcycle evehicle custom1 custom2"/>
    <edge id="245390383#1" from="3128376053" to="865169495" priority="13" type="highway.motorway" numLanes="1" speed="44.44" shape="3164.28,3039.84 3068.46,3105.83 2645.22,3397.30" spreadType="center" allow="private emergency authority army vip passenger hov taxi bus coach delivery truck trailer motorcycle evehicle custom1 custom2"/>
    <edge id="305425748#0" from="3100527167" to="3123715399" priority="5" type="highway.unclassified" numLanes="1" speed="13.89" disallow="tram rail_urban rail rail_electric ship"/>
    <edge id="305425748#1" from="3123715399" to="3100527169" priority="5" type="highway.unclassified" numLanes="1" speed="13.89" shape="2879.05,3060.22 2874.26,3052.88 2824.20,2979.18" disallow="tram rail_urban rail rail_electric ship"/>
    <edge id="305425755#0" from="3100527192" to="3100527169" priority="5" type="highway.unclassified" numLanes="1" speed="13.89" shape="3458.56,2539.29 3453.82,2543.75 3349.38,2616.06 3291.08,2651.47 3215.66,2697.27 3130.78,2758.40 2981.99,2865.55 2938.76,2896.67 2897.86,2926.13 2863.42,2950.93 2824.20,2979.18" disallow="tram rail_urban rail rail_electric ship"/>
    <edge id="305425755#1" from="3100527169" to="837957503" priority="5" type="highway.unclassified" numLanes="1" speed="13.89" disallow="tram rail_urban rail rail_electric ship"/>
    <edge id="307283000" from="3100527176" to="3123715399" priority="5" type="highway.unclassified" numLanes="1" speed="13.89" shape="3180.16,2855.02 3040.32,2950.32 2879.05,3060.22" disallow="tram rail_urban rail rail_electric ship"/>
    <edge id="307627327" from="3128249244" to="3128249023" priority="12" type="highway.motorway_link" numLanes="2" speed="22.22" shape="2554.86,3249.35 2623.29,3258.22 2653.49,3265.26 2682.13,3278.22 2705.18,3295.50 2723.94,3313.01 2742.51,3337.69 2753.28,3358.78 2761.72,3385.91 2765.82,3412.73 2765.05,3439.06 2761.77,3462.37 2752.67,3492.30 2741.93,3521.15 2728.97,3545.48 2709.84,3572.29 2694.12,3589.93 2674.34,3607.89 2651.54,3621.59 2624.94,3633.17 2611.77,3638.51 2595.91,3643.00 2583.33,3645.55 2568.94,3646.81 2536.77,3646.02 2501.05,3640.25 2411.47,3624.10 2379.84,3621.24" spreadType="center" allow="private emergency authority army vip passenger hov taxi bus coach delivery truck trailer motorcycle evehicle custom1 custom2"/>
    <edge id="307627330" from="3128249024" to="3128249244" priority="12" type="highway.motorway_link" numLanes="1" speed="22.22" shape="2421.98,3179.98 2439.25,3201.54 2474.10,3226.11 2504.26,3238.74 2554.86,3249.35" spreadType="center" allow="private emergency authority army vip passenger hov taxi bus coach delivery truck trailer motorcycle evehicle custom1 custom2"/>
    <edge id="307631788" from="1193454525" to="3128249262" priority="12" type="highway.motorway_link" numLanes="2" speed="22.22" shape="2626.69,3379.91 2637.94,3368.04 2647.90,3354.37 2653.68,3340.61 2657.00,3324.19 2654.98,3310.33 2649.43,3296.97 2639.58,3286.34 2628.92,3278.31 2617.01,3273.16 2605.07,3271.06 2592.15,3272.11 2579.20,3276.19 2566.08,3285.22 2556.20,3295.27 2549.88,3309.03 2549.01,3327.85 2551.63,3341.61 2560.74,3357.89 2588.77,3400.00" spreadType="center" allow="private emergency authority army vip passenger hov taxi bus coach delivery truck trailer motorcycle evehicle custom1 custom2"/>
    <edge id="307639503" from="3128376620" to="3128376738" priority="12" type="highway.motorway_link" numLanes="1" speed="22.22" shape="2641.32,3601.56 2615.99,3560.49 2601.35,3532.45 2578.14,3487.33 2525.67,3408.52 2477.15,3323.40" spreadType="center" allow="private emergency authority army vip passenger hov taxi bus coach delivery truck trailer motorcycle evehicle custom1 custom2"/>
    <edge id="307639508" from="3128376713" to="3128376565" priority="12" type="highway.motorway_link" numLanes="2" speed="22.22" shape="2628.58,3241.73 2711.84,3252.46 2739.37,3253.93 2766.66,3252.10 2794.13,3245.33 2821.00,3233.73 2850.51,3215.67 2948.67,3156.79 3047.34,3094.40 3153.58,3023.28" spreadType="center" allow="private emergency authority army vip passenger hov taxi bus coach delivery truck trailer motorcycle evehicle custom1 custom2"/>
    <edge id="307639524" from="3128376573" to="3128376188" priority="12" type="highway.motorway_link" numLanes="1" speed="22.22" shape="2117.89,3806.77 2178.08,3721.95 2223.77,3671.14 2271.84,3623.85 2300.12,3594.51 2320.87,3567.14 2338.59,3534.16 2348.73,3500.20 2358.69,3448.88 2369.10,3394.67 2380.31,3358.82 2391.27,3323.87 2398.21,3294.24 2399.52,3267.36 2395.74,3244.04 2386.77,3218.75" spreadType="center" allow="private emergency authority army vip passenger hov taxi bus coach delivery truck trailer motorcycle evehicle custom1 custom2"/>
    <edge id="307639526" from="3128376030" to="3128376713" priority="12" type="highway.motorway_link" numLanes="2" speed="22.22" shape="2514.82,3625.94 2498.37,3622.69 2473.47,3614.25 2452.30,3602.76 2437.32,3591.66 2420.65,3576.72 2413.69,3569.30 2406.34,3560.23 2397.62,3547.71 2386.84,3525.82 2379.56,3504.41 2375.23,3480.28 2374.71,3456.21 2377.81,3423.31 2384.01,3397.01 2393.44,3371.65 2404.23,3346.55 2418.23,3322.66 2437.93,3297.45 2457.47,3279.85 2476.47,3265.12 2496.83,3253.24 2515.65,3245.50 2544.74,3238.72 2567.43,3236.67 2581.40,3236.95 2628.58,3241.73" spreadType="center" allow="private emergency authority army vip passenger hov taxi bus coach delivery truck trailer motorcycle evehicle custom1 custom2"/>
    <edge id="307639530#0" from="3128376037" to="4886239518" priority="8" type="highway.primary_link" numLanes="1" speed="22.22" spreadType="center" disallow="tram rail_urban rail rail_electric ship"/>
    <edge id="307639530#1" from="4886239518" to="3128376544" priority="8" type="highway.primary_link" numLanes="1" speed="22.22" shape="2721.49,3703.46 2713.35,3691.78 2700.53,3675.80" spreadType="center" disallow="tram rail_urban rail rail_electric ship"/>
    <edge id="307639531" from="3128376346" to="3100527167" priority="5" type="highway.unclassified" numLanes="1" speed="13.89" shape="2643.16,3228.79 2727.26,3233.66 2756.73,3234.48 2777.23,3231.56 2798.73,3224.76 2830.98,3209.45 2839.29,3204.95 2914.43,3164.34 2921.93,3156.55 2925.87,3147.38 2926.87,3139.85 2924.67,3130.27" spreadType="center" disallow="tram rail_urban rail rail_electric ship"/>
    <edge id="307639533#0" from="3128376053" to="3128786020" priority="12" type="highway.motorway_link" numLanes="1" speed="22.22" shape="3164.28,3039.84 3080.96,3105.02 2984.04,3171.24" spreadType="center" allow="private emergency authority army vip passenger hov taxi bus coach delivery truck trailer motorcycle evehicle custom1 custom2"/>
    <edge id="307639533#1" from="3128786020" to="3128249012" priority="12" type="highway.motorway_link" numLanes="1" speed="22.22" shape="2984.04,3171.24 2957.93,3189.08 2886.72,3243.89 2854.89,3270.85 2836.21,3289.61 2817.61,3314.08 2804.95,3339.49 2794.22,3369.15 2779.98,3425.09 2760.60,3501.07 2742.33,3578.90 2737.75,3601.07 2739.59,3622.44 2745.51,3643.60 2775.57,3694.91" spreadType="center" allow="private emergency authority army vip passenger hov taxi bus coach delivery truck trailer motorcycle evehicle custom1 custom2"/>
    <edge id="307639535#0" from="3128249023" to="4886239507" priority="12" type="highway.motorway_link" numLanes="1" speed="22.22" shape="2379.84,3621.24 2361.50,3623.34 2341.61,3629.31 2323.05,3637.49 2281.76,3664.55 2257.90,3683.85" spreadType="center" allow="private emergency authority army vip passenger hov taxi bus coach delivery truck trailer motorcycle evehicle custom1 custom2"/>
    <edge id="307639535#1" from="4886239507" to="1826913711" priority="12" type="highway.motorway_link" numLanes="1" speed="22.22" shape="2257.90,3683.85 2227.18,3708.70 2199.41,3735.62 2185.32,3752.80 2138.39,3810.00" spreadType="center" allow="private emergency authority army vip passenger hov taxi bus coach delivery truck trailer motorcycle evehicle custom1 custom2"/>
    <edge id="307639541#0" from="3128376142" to="3128376346" priority="12" type="highway.motorway_link" numLanes="1" speed="22.22" shape="2413.21,3167.48 2444.09,3200.41 2462.88,3213.08 2481.31,3219.31 2500.53,3222.85 2528.35,3222.80 2588.57,3222.10 2643.16,3228.79" spreadType="center" allow="private emergency authority army vip passenger hov taxi bus coach delivery truck trailer motorcycle evehicle custom1 custom2"/>
    <edge id="307639541#1" from="3128376346" to="3128376565" priority="12" type="highway.motorway_link" numLanes="1" speed="22.22" shape="2643.16,3228.79 2715.45,3237.65 2758.69,3240.64 2784.85,3237.11 2793.37,3234.65 2819.79,3222.20 2861.97,3202.64 2963.07,3143.09 3153.58,3023.28" spreadType="center" allow="private emergency authority army vip passenger hov taxi bus coach delivery truck trailer motorcycle evehicle custom1 custom2"/>