<?xml version="1.0" encoding="UTF-8"?>

<!-- generated on 6/23/2018 9:46:12 PM by Netedit Version 0.32.0
<?xml version="1.0" encoding="UTF-8"?>

<configuration xmlns:xsi="http://www.w3.org/2001/XMLSchema-instance" xsi:noNamespaceSchemaLocation="http://sumo.dlr.de/xsd/netconvertConfiguration.xsd">

    <input>
        <sumo-net-file value="C:\Users\abeld\Downloads\Intersection\continuousflow.net.xml"/>
    </input>

    <output>
        <output-file value="C:\Users\abeld\Downloads\Intersection\continuousflow.net.xml"/>
    </output>

    <processing>
        <no-turnarounds value="true"/>
        <offset.disable-normalization value="true"/>
        <lefthand value="false"/>
        <junctions.corner-detail value="0"/>
        <rectangular-lane-cut value="false"/>
        <walkingareas value="false"/>
    </processing>

</configuration>
-->

<net version="0.27" xmlns:xsi="http://www.w3.org/2001/XMLSchema-instance" xsi:noNamespaceSchemaLocation="http://sumo.dlr.de/xsd/net_file.xsd">

    <location netOffset="0.00,0.00" convBoundary="-620.00,-570.00,800.00,780.00" origBoundary="-10000000000.00,-10000000000.00,10000000000.00,10000000000.00" projParameter="!"/>

    <edge id=":gneJ10_0" function="internal">
        <lane id=":gneJ10_0_0" index="0" speed="13.89" length="0.10" shape="38.35,250.00 38.35,250.00"/>
    </edge>
    <edge id=":gneJ102_0" function="internal">
        <lane id=":gneJ102_0_0" index="0" speed="13.89" length="13.12" shape="290.51,85.24 287.25,84.01 284.34,82.85 281.37,81.99 277.97,81.65"/>
    </edge>
    <edge id=":gneJ102_1" function="internal">
        <lane id=":gneJ102_1_0" index="0" speed="13.89" length="13.12" shape="291.09,81.65 277.97,81.65"/>
    </edge>
    <edge id=":gneJ103_0" function="internal">
        <lane id=":gneJ103_0_0" index="0" speed="13.89" length="13.12" shape="290.51,95.24 287.25,94.01 284.34,92.85 281.37,91.99 277.97,91.65"/>
    </edge>
    <edge id=":gneJ103_1" function="internal">
        <lane id=":gneJ103_1_0" index="0" speed="13.89" length="13.65" shape="291.63,91.65 277.97,91.65"/>
    </edge>
    <edge id=":gneJ103_2" function="internal">
        <lane id=":gneJ103_2_0" index="0" speed="13.89" length="13.63" shape="291.04,88.06 287.70,89.29 284.60,90.45 281.46,91.31 277.97,91.65"/>
    </edge>
    <edge id=":gneJ104_0" function="internal">
        <lane id=":gneJ104_0_0" index="0" speed="13.89" length="13.12" shape="291.63,101.65 278.51,101.65"/>
    </edge>
    <edge id=":gneJ104_1" function="internal">
        <lane id=":gneJ104_1_0" index="0" speed="13.89" length="13.12" shape="291.04,98.06 287.79,99.29 284.87,100.45 281.91,101.31 278.51,101.65"/>
    </edge>
    <edge id=":gneJ11_0" function="internal">
        <lane id=":gneJ11_0_0" index="0" speed="13.89" length="0.23" shape="38.37,-99.77 38.36,-99.84 38.35,-99.88 38.35,-99.93 38.35,-100.00"/>
    </edge>
    <edge id=":gneJ12_0" function="internal">
        <lane id=":gneJ12_0_0" index="0" speed="13.89" length="0.10" shape="28.35,250.00 28.35,250.00"/>
    </edge>
    <edge id=":gneJ134_0" function="internal">
        <lane id=":gneJ134_0_0" index="0" speed="13.89" length="13.12" shape="-181.63,48.35 -168.51,48.35"/>
    </edge>
    <edge id=":gneJ134_1" function="internal">
        <lane id=":gneJ134_1_0" index="0" speed="13.89" length="13.12" shape="-181.04,51.94 -177.79,50.71 -174.87,49.55 -171.91,48.69 -168.51,48.35"/>
    </edge>
    <edge id=":gneJ135_0" function="internal">
        <lane id=":gneJ135_0_0" index="0" speed="13.89" length="13.12" shape="-180.51,54.76 -177.25,55.99 -174.34,57.15 -171.37,58.01 -167.97,58.35"/>
    </edge>
    <edge id=":gneJ135_1" function="internal">
        <lane id=":gneJ135_1_0" index="0" speed="13.89" length="13.65" shape="-181.63,58.35 -167.97,58.35"/>
    </edge>
    <edge id=":gneJ135_2" function="internal">
        <lane id=":gneJ135_2_0" index="0" speed="13.89" length="13.63" shape="-181.04,61.94 -177.70,60.71 -174.60,59.55 -171.46,58.69 -167.97,58.35"/>
    </edge>
    <edge id=":gneJ136_0" function="internal">
        <lane id=":gneJ136_0_0" index="0" speed="13.89" length="13.12" shape="-180.51,64.76 -177.25,65.99 -174.34,67.15 -171.37,68.01 -167.97,68.35"/>
    </edge>
    <edge id=":gneJ136_1" function="internal">
        <lane id=":gneJ136_1_0" index="0" speed="13.89" length="13.12" shape="-181.09,68.35 -167.97,68.35"/>
    </edge>
    <edge id=":gneJ14_0" function="internal">
        <lane id=":gneJ14_0_0" index="0" speed="13.89" length="0.10" shape="-120.00,48.35 -120.00,48.35"/>
    </edge>
    <edge id=":gneJ141_0" function="internal">
        <lane id=":gneJ141_0_0" index="0" speed="13.89" length="13.12" shape="48.35,311.09 48.35,297.97"/>
    </edge>
    <edge id=":gneJ141_1" function="internal">
        <lane id=":gneJ141_1_0" index="0" speed="13.89" length="13.12" shape="44.76,310.51 45.99,307.25 47.15,304.34 48.01,301.37 48.35,297.97"/>
    </edge>
    <edge id=":gneJ142_0" function="internal">
        <lane id=":gneJ142_0_0" index="0" speed="13.89" length="13.65" shape="38.35,311.63 38.35,297.97"/>
    </edge>
    <edge id=":gneJ142_1" function="internal">
        <lane id=":gneJ142_1_0" index="0" speed="13.89" length="13.63" shape="41.94,311.04 40.71,307.70 39.55,304.60 38.69,301.46 38.35,297.97"/>
    </edge>
    <edge id=":gneJ142_2" function="internal">
        <lane id=":gneJ142_2_0" index="0" speed="13.89" length="13.12" shape="34.76,310.51 35.99,307.25 37.15,304.34 38.01,301.37 38.35,297.97"/>
    </edge>
    <edge id=":gneJ143_0" function="internal">
        <lane id=":gneJ143_0_0" index="0" speed="13.89" length="13.12" shape="28.35,311.63 28.35,298.51"/>
    </edge>
    <edge id=":gneJ143_1" function="internal">
        <lane id=":gneJ143_1_0" index="0" speed="13.89" length="13.12" shape="31.94,311.04 30.71,307.79 29.55,304.87 28.69,301.91 28.35,298.51"/>
    </edge>
    <edge id=":gneJ145_0" function="internal">
        <lane id=":gneJ145_0_0" index="0" speed="13.89" length="13.12" shape="81.65,-161.63 81.65,-148.51"/>
    </edge>
    <edge id=":gneJ145_1" function="internal">
        <lane id=":gneJ145_1_0" index="0" speed="13.89" length="13.12" shape="78.06,-161.04 79.29,-157.79 80.45,-154.87 81.31,-151.91 81.65,-148.51"/>
    </edge>
    <edge id=":gneJ146_0" function="internal">
        <lane id=":gneJ146_0_0" index="0" speed="13.89" length="13.12" shape="75.24,-160.51 74.01,-157.25 72.85,-154.34 71.99,-151.37 71.65,-147.97"/>
    </edge>
    <edge id=":gneJ146_1" function="internal">
        <lane id=":gneJ146_1_0" index="0" speed="13.89" length="13.65" shape="71.65,-161.63 71.65,-147.97"/>
    </edge>
    <edge id=":gneJ146_2" function="internal">
        <lane id=":gneJ146_2_0" index="0" speed="13.89" length="13.63" shape="68.06,-161.04 69.29,-157.70 70.45,-154.60 71.31,-151.46 71.65,-147.97"/>
    </edge>
    <edge id=":gneJ147_0" function="internal">
        <lane id=":gneJ147_0_0" index="0" speed="13.89" length="13.12" shape="65.24,-160.51 64.01,-157.25 62.85,-154.34 61.99,-151.37 61.65,-147.97"/>
    </edge>
    <edge id=":gneJ147_1" function="internal">
        <lane id=":gneJ147_1_0" index="0" speed="13.89" length="13.12" shape="61.65,-161.09 61.65,-147.97"/>
    </edge>
    <edge id=":gneJ15_0" function="internal">
        <lane id=":gneJ15_0_0" index="0" speed="13.89" length="19.31" shape="212.85,44.89 217.18,45.84 222.30,46.99 227.44,47.95 231.82,48.35"/>
    </edge>
    <edge id=":gneJ15_1" function="internal">
        <lane id=":gneJ15_1_0" index="0" speed="13.89" length="19.32" shape="212.50,48.35 231.82,48.35"/>
    </edge>
    <edge id=":gneJ16_0" function="internal">
        <lane id=":gneJ16_0_0" index="0" speed="13.89" length="0.10" shape="-120.00,58.35 -120.00,58.35"/>
    </edge>
    <edge id=":gneJ165_0" function="internal">
        <lane id=":gneJ165_0_0" index="0" speed="13.89" length="0.45" shape="28.41,-99.55 28.38,-99.68 28.36,-99.77 28.35,-99.86 28.35,-99.99"/>
    </edge>
    <edge id=":gneJ17_0" function="internal">
        <lane id=":gneJ17_0_0" index="0" speed="13.89" length="0.10" shape="230.00,58.35 230.00,58.35"/>
    </edge>
    <edge id=":gneJ175_0" function="internal">
        <lane id=":gneJ175_0_0" index="0" speed="13.89" length="10.16" shape="38.35,197.89 38.35,187.73"/>
    </edge>
    <edge id=":gneJ175_1" function="internal">
        <lane id=":gneJ175_1_0" index="0" speed="13.89" length="10.19" shape="34.65,197.01 36.17,194.38 37.34,192.57 38.09,190.66 38.35,187.73"/>
    </edge>
    <edge id=":gneJ18_0" function="internal">
        <lane id=":gneJ18_0_0" index="0" speed="13.89" length="0.10" shape="-120.00,68.35 -120.00,68.35"/>
    </edge>
    <edge id=":gneJ181_0" function="internal">
        <lane id=":gneJ181_0_0" index="0" speed="13.89" length="10.19" shape="75.35,-37.01 73.83,-34.38 72.66,-32.57 71.91,-30.66 71.65,-27.73"/>
    </edge>
    <edge id=":gneJ181_1" function="internal">
        <lane id=":gneJ181_1_0" index="0" speed="13.89" length="10.16" shape="71.65,-37.89 71.65,-27.73"/>
    </edge>
    <edge id=":gneJ182_0" function="internal">
        <lane id=":gneJ182_0_0" index="0" speed="13.89" length="0.75" shape="81.65,-49.99 81.65,-49.77 81.63,-49.62 81.58,-49.47 81.48,-49.27"/>
    </edge>
    <edge id=":gneJ185_0" function="internal">
        <lane id=":gneJ185_0_0" index="0" speed="13.89" length="0.75" shape="28.35,209.99 28.35,209.77 28.37,209.62 28.42,209.47 28.52,209.27"/>
    </edge>
    <edge id=":gneJ186_0" function="internal">
        <lane id=":gneJ186_0_0" index="0" speed="13.89" length="2.01" shape="61.65,0.04 61.58,0.56 61.38,0.99 61.03,1.32 60.56,1.55"/>
    </edge>
    <edge id=":gneJ187_0" function="internal">
        <lane id=":gneJ187_0_0" index="0" speed="13.89" length="10.16" shape="71.65,-1.49 71.65,8.67"/>
    </edge>
    <edge id=":gneJ187_1" function="internal">
        <lane id=":gneJ187_1_0" index="0" speed="13.89" length="10.19" shape="71.65,-1.49 71.39,1.44 70.64,3.35 69.47,5.16 67.95,7.79"/>
    </edge>
    <edge id=":gneJ188_0" function="internal">
        <lane id=":gneJ188_0_0" index="0" speed="13.89" length="0.75" shape="61.82,20.05 61.72,20.25 61.67,20.39 61.65,20.55 61.65,20.77"/>
    </edge>
    <edge id=":gneJ189_0" function="internal">
        <lane id=":gneJ189_0_0" index="0" speed="13.89" length="0.10" shape="61.65,70.00 61.65,70.00"/>
    </edge>
    <edge id=":gneJ19_0" function="internal">
        <lane id=":gneJ19_0_0" index="0" speed="13.89" length="0.10" shape="230.00,68.35 230.00,68.35"/>
    </edge>
    <edge id=":gneJ190_0" function="internal">
        <lane id=":gneJ190_0_0" index="0" speed="13.89" length="2.58" shape="71.65,36.75 71.75,37.45 72.05,37.95 72.55,38.25 73.25,38.35"/>
    </edge>
    <edge id=":gneJ191_0" function="internal">
        <lane id=":gneJ191_0_0" index="0" speed="13.89" length="0.32" shape="180.00,38.35 180.10,38.35 180.16,38.35 180.23,38.36 180.32,38.38"/>
    </edge>
    <edge id=":gneJ192_0" function="internal">
        <lane id=":gneJ192_0_0" index="0" speed="13.89" length="1.02" shape="31.52,11.23 31.24,11.33 31.06,11.43 30.91,11.58 30.73,11.82"/>
    </edge>
    <edge id=":gneJ193_0" function="internal">
        <lane id=":gneJ193_0_0" index="0" speed="13.89" length="6.93" shape="-14.54,81.65 -21.47,81.65"/>
    </edge>
    <edge id=":gneJ193_1" function="internal">
        <lane id=":gneJ193_1_0" index="0" speed="13.89" length="2.86" shape="-16.47,77.90 -17.79,79.54 -18.34,80.05"/>
    </edge>
    <edge id=":gneJ193_2" function="internal">
        <lane id=":gneJ193_2_0" index="0" speed="13.89" length="3.60" shape="-18.34,80.05 -19.06,80.71 -20.29,81.42 -21.47,81.65"/>
    </edge>
    <edge id=":gneJ195_0" function="internal">
        <lane id=":gneJ195_0_0" index="0" speed="13.89" length="13.12" shape="38.35,151.49 38.35,138.37"/>
    </edge>
    <edge id=":gneJ195_1" function="internal">
        <lane id=":gneJ195_1_0" index="0" speed="13.89" length="13.12" shape="38.35,151.49 38.69,148.09 39.55,145.13 40.71,142.21 41.94,138.96"/>
    </edge>
    <edge id=":gneJ196_0" function="internal">
        <lane id=":gneJ196_0_0" index="0" speed="13.89" length="0.52" shape="48.27,119.98 48.31,119.83 48.34,119.73 48.35,119.63 48.35,119.47"/>
    </edge>
    <edge id=":gneJ197_0" function="internal">
        <lane id=":gneJ197_0_0" index="0" speed="13.89" length="0.10" shape="48.35,80.00 48.35,80.00"/>
    </edge>
    <edge id=":gneJ198_0" function="internal">
        <lane id=":gneJ198_0_0" index="0" speed="13.89" length="2.58" shape="38.35,123.25 38.25,122.55 37.95,122.05 37.45,121.75 36.75,121.65"/>
    </edge>
    <edge id=":gneJ199_0" function="internal">
        <lane id=":gneJ199_0_0" index="0" speed="13.89" length="0.61" shape="-70.01,121.65 -70.19,121.65 -70.31,121.63 -70.44,121.60 -70.60,121.54"/>
    </edge>
    <edge id=":gneJ2_0" function="internal">
        <lane id=":gneJ2_0_0" index="0" speed="13.89" length="0.10" shape="61.65,-100.00 61.65,-100.00"/>
    </edge>
    <edge id=":gneJ20_0" function="internal">
        <lane id=":gneJ20_0_0" index="0" speed="13.89" length="0.10" shape="230.00,81.65 230.00,81.65"/>
    </edge>
    <edge id=":gneJ200_0" function="internal">
        <lane id=":gneJ200_0_0" index="0" speed="13.89" length="2.01" shape="48.35,149.96 48.42,149.44 48.62,149.01 48.97,148.68 49.44,148.45"/>
    </edge>
    <edge id=":gneJ201_0" function="internal">
        <lane id=":gneJ201_0_0" index="0" speed="13.89" length="1.02" shape="78.48,138.77 78.76,138.67 78.94,138.57 79.09,138.42 79.27,138.18"/>
    </edge>
    <edge id=":gneJ203_0" function="internal">
        <lane id=":gneJ203_0_0" index="0" speed="13.89" length="6.93" shape="124.54,68.35 131.47,68.35"/>
    </edge>
    <edge id=":gneJ203_1" function="internal">
        <lane id=":gneJ203_1_0" index="0" speed="13.89" length="2.86" shape="126.47,72.10 127.79,70.46 128.34,69.95"/>
    </edge>
    <edge id=":gneJ203_2" function="internal">
        <lane id=":gneJ203_2_0" index="0" speed="13.89" length="3.60" shape="128.34,69.95 129.06,69.29 130.29,68.58 131.47,68.35"/>
    </edge>
    <edge id=":gneJ21_0" function="internal">
        <lane id=":gneJ21_0_0" index="0" speed="13.89" length="0.10" shape="-120.00,81.65 -120.00,81.65"/>
    </edge>
    <edge id=":gneJ22_0" function="internal">
        <lane id=":gneJ22_0_0" index="0" speed="13.89" length="0.10" shape="230.00,91.65 230.00,91.65"/>
    </edge>
    <edge id=":gneJ24_0" function="internal">
        <lane id=":gneJ24_0_0" index="0" speed="13.89" length="0.10" shape="230.00,101.65 230.00,101.65"/>
    </edge>
    <edge id=":gneJ25_0" function="internal">
        <lane id=":gneJ25_0_0" index="0" speed="13.89" length="11.63" shape="-111.21,105.29 -114.17,103.94 -116.53,102.77 -118.96,101.96 -122.13,101.65"/>
    </edge>
    <edge id=":gneJ25_1" function="internal">
        <lane id=":gneJ25_1_0" index="0" speed="13.89" length="11.62" shape="-110.51,101.65 -122.13,101.65"/>
    </edge>
    <edge id=":gneJ3_0" function="internal">
        <lane id=":gneJ3_0_0" index="0" speed="13.89" length="23.49" shape="61.65,187.97 62.50,192.91 64.50,199.27 66.79,205.57 68.53,210.37"/>
    </edge>
    <edge id=":gneJ3_1" function="internal">
        <lane id=":gneJ3_1_0" index="0" speed="13.89" length="23.51" shape="61.65,187.97 62.09,193.02 63.12,199.61 64.30,206.19 65.21,211.20"/>
    </edge>
    <edge id=":gneJ3_2" function="internal">
        <lane id=":gneJ3_2_0" index="0" speed="13.89" length="22.72" shape="61.65,187.97 61.65,210.70"/>
    </edge>
    <edge id=":gneJ38_0" function="internal">
        <lane id=":gneJ38_0_0" index="0" speed="13.89" length="13.12" shape="768.51,48.35 781.63,48.35"/>
    </edge>
    <edge id=":gneJ38_1" function="internal">
        <lane id=":gneJ38_1_0" index="0" speed="13.89" length="13.12" shape="768.51,48.35 771.91,48.69 774.87,49.55 777.79,50.71 781.04,51.94"/>
    </edge>
    <edge id=":gneJ39_0" function="internal">
        <lane id=":gneJ39_0_0" index="0" speed="13.89" length="13.12" shape="767.97,58.35 771.37,58.01 774.34,57.15 777.25,55.99 780.51,54.76"/>
    </edge>
    <edge id=":gneJ39_1" function="internal">
        <lane id=":gneJ39_1_0" index="0" speed="13.89" length="13.12" shape="767.97,58.35 781.09,58.35"/>
    </edge>
    <edge id=":gneJ4_0" function="internal">
        <lane id=":gneJ4_0_0" index="0" speed="13.89" length="0.10" shape="71.65,-100.00 71.65,-100.00"/>
    </edge>
    <edge id=":gneJ40_0" function="internal">
        <lane id=":gneJ40_0_0" index="0" speed="13.89" length="13.12" shape="767.97,68.35 771.37,68.01 774.34,67.15 777.25,65.99 780.51,64.76"/>
    </edge>
    <edge id=":gneJ40_1" function="internal">
        <lane id=":gneJ40_1_0" index="0" speed="13.89" length="13.12" shape="767.97,68.35 781.09,68.35"/>
    </edge>
    <edge id=":gneJ44_0" function="internal">
        <lane id=":gneJ44_0_0" index="0" speed="13.89" length="13.12" shape="-588.51,101.65 -601.63,101.65"/>
    </edge>
    <edge id=":gneJ44_1" function="internal">
        <lane id=":gneJ44_1_0" index="0" speed="13.89" length="13.12" shape="-588.51,101.65 -591.91,101.31 -594.87,100.45 -597.79,99.29 -601.04,98.06"/>
    </edge>
    <edge id=":gneJ46_0" function="internal">
        <lane id=":gneJ46_0_0" index="0" speed="13.89" length="12.62" shape="-588.51,91.65 -591.83,91.99 -594.60,92.85 -597.34,94.01 -600.51,95.24"/>
    </edge>
    <edge id=":gneJ46_1" function="internal">
        <lane id=":gneJ46_1_0" index="0" speed="13.89" length="13.12" shape="-588.51,91.65 -601.63,91.65"/>
    </edge>
    <edge id=":gneJ46_2" function="internal">
        <lane id=":gneJ46_2_0" index="0" speed="13.89" length="13.12" shape="-588.51,91.65 -591.91,91.31 -594.87,90.45 -597.79,89.29 -601.04,88.06"/>
    </edge>
    <edge id=":gneJ47_0" function="internal">
        <lane id=":gneJ47_0_0" index="0" speed="13.89" length="13.12" shape="-587.97,81.65 -591.37,81.99 -594.34,82.85 -597.25,84.01 -600.51,85.24"/>
    </edge>
    <edge id=":gneJ47_1" function="internal">
        <lane id=":gneJ47_1_0" index="0" speed="13.89" length="13.12" shape="-587.97,81.65 -601.09,81.65"/>
    </edge>
    <edge id=":gneJ5_0" function="internal">
        <lane id=":gneJ5_0_0" index="0" speed="13.89" length="0.26" shape="71.63,249.73 71.64,249.81 71.65,249.86 71.65,249.92 71.65,250.00"/>
    </edge>
    <edge id=":gneJ52_0" function="internal">
        <lane id=":gneJ52_0_0" index="0" speed="13.89" length="13.12" shape="-202.03,68.35 -198.63,68.01 -195.66,67.15 -192.75,65.99 -189.49,64.76"/>
    </edge>
    <edge id=":gneJ52_1" function="internal">
        <lane id=":gneJ52_1_0" index="0" speed="13.89" length="13.12" shape="-202.03,68.35 -188.91,68.35"/>
    </edge>
    <edge id=":gneJ54_0" function="internal">
        <lane id=":gneJ54_0_0" index="0" speed="13.89" length="12.62" shape="-201.49,58.35 -198.17,58.01 -195.40,57.15 -192.66,55.99 -189.49,54.76"/>
    </edge>
    <edge id=":gneJ54_1" function="internal">
        <lane id=":gneJ54_1_0" index="0" speed="13.89" length="13.12" shape="-201.49,58.35 -188.37,58.35"/>
    </edge>
    <edge id=":gneJ54_2" function="internal">
        <lane id=":gneJ54_2_0" index="0" speed="13.89" length="13.12" shape="-201.49,58.35 -198.09,58.69 -195.13,59.55 -192.21,60.71 -188.96,61.94"/>
    </edge>
    <edge id=":gneJ56_0" function="internal">
        <lane id=":gneJ56_0_0" index="0" speed="13.89" length="13.12" shape="-201.49,48.35 -188.37,48.35"/>
    </edge>
    <edge id=":gneJ56_1" function="internal">
        <lane id=":gneJ56_1_0" index="0" speed="13.89" length="13.12" shape="-201.49,48.35 -198.09,48.69 -195.13,49.55 -192.21,50.71 -188.96,51.94"/>
    </edge>
    <edge id=":gneJ58_0" function="internal">
        <lane id=":gneJ58_0_0" index="0" speed="13.89" length="13.12" shape="312.03,81.65 308.63,81.99 305.66,82.85 302.75,84.01 299.49,85.24"/>
    </edge>
    <edge id=":gneJ58_1" function="internal">
        <lane id=":gneJ58_1_0" index="0" speed="13.89" length="13.12" shape="312.03,81.65 298.91,81.65"/>
    </edge>
    <edge id=":gneJ6_0" function="internal">
        <lane id=":gneJ6_0_0" index="0" speed="13.89" length="0.10" shape="81.65,-100.00 81.65,-100.00"/>
    </edge>
    <edge id=":gneJ60_0" function="internal">
        <lane id=":gneJ60_0_0" index="0" speed="13.89" length="12.62" shape="311.49,91.65 308.17,91.99 305.40,92.85 302.66,94.01 299.49,95.24"/>
    </edge>
    <edge id=":gneJ60_1" function="internal">
        <lane id=":gneJ60_1_0" index="0" speed="13.89" length="13.12" shape="311.49,91.65 298.37,91.65"/>
    </edge>
    <edge id=":gneJ60_2" function="internal">
        <lane id=":gneJ60_2_0" index="0" speed="13.89" length="13.12" shape="311.49,91.65 308.09,91.31 305.13,90.45 302.21,89.29 298.96,88.06"/>
    </edge>
    <edge id=":gneJ62_0" function="internal">
        <lane id=":gneJ62_0_0" index="0" speed="13.89" length="13.12" shape="311.49,101.65 298.37,101.65"/>
    </edge>
    <edge id=":gneJ62_1" function="internal">
        <lane id=":gneJ62_1_0" index="0" speed="13.89" length="13.12" shape="311.49,101.65 308.09,101.31 305.13,100.45 302.21,99.29 298.96,98.06"/>
    </edge>
    <edge id=":gneJ63_0" function="internal">
        <lane id=":gneJ63_0_0" index="0" speed="13.89" length="13.12" shape="28.35,-538.51 28.35,-551.63"/>
    </edge>
    <edge id=":gneJ63_1" function="internal">
        <lane id=":gneJ63_1_0" index="0" speed="13.89" length="13.12" shape="28.35,-538.51 28.69,-541.91 29.55,-544.87 30.71,-547.79 31.94,-551.04"/>
    </edge>
    <edge id=":gneJ64_0" function="internal">
        <lane id=":gneJ64_0_0" index="0" speed="13.89" length="13.12" shape="38.35,-537.97 38.01,-541.37 37.15,-544.34 35.99,-547.25 34.76,-550.51"/>
    </edge>
    <edge id=":gneJ64_1" function="internal">
        <lane id=":gneJ64_1_0" index="0" speed="13.89" length="13.65" shape="38.35,-537.97 38.35,-551.63"/>
    </edge>
    <edge id=":gneJ64_2" function="internal">
        <lane id=":gneJ64_2_0" index="0" speed="13.89" length="13.63" shape="38.35,-537.97 38.69,-541.46 39.55,-544.60 40.71,-547.70 41.94,-551.04"/>
    </edge>
    <edge id=":gneJ65_0" function="internal">
        <lane id=":gneJ65_0_0" index="0" speed="13.89" length="13.12" shape="48.35,-537.97 48.01,-541.37 47.15,-544.34 45.99,-547.25 44.76,-550.51"/>
    </edge>
    <edge id=":gneJ65_1" function="internal">
        <lane id=":gneJ65_1_0" index="0" speed="13.89" length="13.12" shape="48.35,-537.97 48.35,-551.09"/>
    </edge>
    <edge id=":gneJ67_0" function="internal">
        <lane id=":gneJ67_0_0" index="0" speed="13.89" length="13.12" shape="61.65,-182.03 61.99,-178.63 62.85,-175.66 64.01,-172.75 65.24,-169.49"/>
    </edge>
    <edge id=":gneJ67_1" function="internal">
        <lane id=":gneJ67_1_0" index="0" speed="13.89" length="13.12" shape="61.65,-182.03 61.65,-168.91"/>
    </edge>
    <edge id=":gneJ69_0" function="internal">
        <lane id=":gneJ69_0_0" index="0" speed="13.89" length="12.62" shape="71.65,-181.49 71.99,-178.17 72.85,-175.40 74.01,-172.66 75.24,-169.49"/>
    </edge>
    <edge id=":gneJ69_1" function="internal">
        <lane id=":gneJ69_1_0" index="0" speed="13.89" length="13.12" shape="71.65,-181.49 71.65,-168.37"/>
    </edge>
    <edge id=":gneJ69_2" function="internal">
        <lane id=":gneJ69_2_0" index="0" speed="13.89" length="13.12" shape="71.65,-181.49 71.31,-178.09 70.45,-175.13 69.29,-172.21 68.06,-168.96"/>
    </edge>
    <edge id=":gneJ7_0" function="internal">
        <lane id=":gneJ7_0_0" index="0" speed="13.89" length="0.52" shape="81.57,249.49 81.61,249.63 81.64,249.73 81.65,249.84 81.65,249.99"/>
    </edge>
    <edge id=":gneJ71_0" function="internal">
        <lane id=":gneJ71_0_0" index="0" speed="13.89" length="13.12" shape="81.65,-181.49 81.65,-168.37"/>
    </edge>
    <edge id=":gneJ71_1" function="internal">
        <lane id=":gneJ71_1_0" index="0" speed="13.89" length="13.12" shape="81.65,-181.49 81.31,-178.09 80.45,-175.13 79.29,-172.21 78.06,-168.96"/>
    </edge>
    <edge id=":gneJ73_0" function="internal">
        <lane id=":gneJ73_0_0" index="0" speed="13.89" length="13.12" shape="81.65,748.51 81.65,761.63"/>
    </edge>
    <edge id=":gneJ73_1" function="internal">
        <lane id=":gneJ73_1_0" index="0" speed="13.89" length="13.12" shape="81.65,748.51 81.31,751.91 80.45,754.87 79.29,757.79 78.06,761.04"/>
    </edge>
    <edge id=":gneJ74_0" function="internal">
        <lane id=":gneJ74_0_0" index="0" speed="13.89" length="12.62" shape="71.65,748.51 71.99,751.83 72.85,754.60 74.01,757.34 75.24,760.51"/>
    </edge>
    <edge id=":gneJ74_1" function="internal">
        <lane id=":gneJ74_1_0" index="0" speed="13.89" length="13.12" shape="71.65,748.51 71.65,761.63"/>
    </edge>
    <edge id=":gneJ74_2" function="internal">
        <lane id=":gneJ74_2_0" index="0" speed="13.89" length="13.12" shape="71.65,748.51 71.31,751.91 70.45,754.87 69.29,757.79 68.06,761.04"/>
    </edge>
    <edge id=":gneJ75_0" function="internal">
        <lane id=":gneJ75_0_0" index="0" speed="13.89" length="13.12" shape="61.65,747.97 61.99,751.37 62.85,754.34 64.01,757.25 65.24,760.51"/>
    </edge>
    <edge id=":gneJ75_1" function="internal">
        <lane id=":gneJ75_1_0" index="0" speed="13.89" length="13.12" shape="61.65,747.97 61.65,761.09"/>
    </edge>
    <edge id=":gneJ77_0" function="internal">
        <lane id=":gneJ77_0_0" index="0" speed="13.89" length="13.12" shape="48.35,332.03 48.01,328.63 47.15,325.66 45.99,322.75 44.76,319.49"/>
    </edge>
    <edge id=":gneJ77_1" function="internal">
        <lane id=":gneJ77_1_0" index="0" speed="13.89" length="13.12" shape="48.35,332.03 48.35,318.91"/>
    </edge>
    <edge id=":gneJ79_0" function="internal">
        <lane id=":gneJ79_0_0" index="0" speed="13.89" length="13.12" shape="38.35,332.03 38.01,328.63 37.15,325.66 35.99,322.75 34.76,319.49"/>
    </edge>
    <edge id=":gneJ79_1" function="internal">
        <lane id=":gneJ79_1_0" index="0" speed="13.89" length="13.65" shape="38.35,332.03 38.35,318.37"/>
    </edge>
    <edge id=":gneJ79_2" function="internal">
        <lane id=":gneJ79_2_0" index="0" speed="13.89" length="13.63" shape="38.35,332.03 38.69,328.54 39.55,325.40 40.71,322.30 41.94,318.96"/>
    </edge>
    <edge id=":gneJ8_0" function="internal">
        <lane id=":gneJ8_0_0" index="0" speed="13.89" length="0.10" shape="48.35,250.00 48.35,250.00"/>
    </edge>
    <edge id=":gneJ81_0" function="internal">
        <lane id=":gneJ81_0_0" index="0" speed="13.89" length="13.12" shape="28.35,331.49 28.35,318.37"/>
    </edge>
    <edge id=":gneJ81_1" function="internal">
        <lane id=":gneJ81_1_0" index="0" speed="13.89" length="13.12" shape="28.35,331.49 28.69,328.09 29.55,325.13 30.71,322.21 31.94,318.96"/>
    </edge>
    <edge id=":gneJ9_0" function="internal">
        <lane id=":gneJ9_0_0" index="0" speed="13.89" length="26.51" shape="48.35,-28.04 47.48,-33.47 45.46,-40.90 43.18,-48.30 41.54,-53.62"/>
    </edge>
    <edge id=":gneJ9_1" function="internal">
        <lane id=":gneJ9_1_0" index="0" speed="13.89" length="26.52" shape="48.35,-28.04 47.90,-33.56 46.87,-41.21 45.70,-48.84 44.86,-54.33"/>
    </edge>
    <edge id=":gneJ9_2" function="internal">
        <lane id=":gneJ9_2_0" index="0" speed="13.89" length="25.85" shape="48.35,-28.04 48.35,-53.90"/>
    </edge>

    <edge id="gneE100" from="gneJ60" to="gneJ104" priority="1">
        <lane id="gneE100_0" index="0" speed="13.89" length="8.90" shape="299.49,95.24 291.04,98.06"/>
    </edge>
    <edge id="gneE101" from="gneJ60" to="gneJ102" priority="1">
        <lane id="gneE101_0" index="0" speed="13.89" length="8.90" shape="298.96,88.06 290.51,85.24"/>
    </edge>
    <edge id="gneE102" from="gneJ58" to="gneJ103" priority="1">
        <lane id="gneE102_0" index="0" speed="13.89" length="8.90" shape="299.49,85.24 291.04,88.06"/>
    </edge>
    <edge id="gneE103" from="gneJ102" to="gneJ20" priority="1">
        <lane id="gneE103_0" index="0" speed="13.89" length="47.97" shape="277.97,81.65 230.00,81.65"/>
    </edge>
    <edge id="gneE104" from="gneJ103" to="gneJ22" priority="1">
        <lane id="gneE104_0" index="0" speed="13.89" length="47.97" shape="277.97,91.65 230.00,91.65"/>
    </edge>
    <edge id="gneE106" from="gneJ104" to="gneJ24" priority="1">
        <lane id="gneE106_0" index="0" speed="13.89" length="48.51" shape="278.51,101.65 230.00,101.65"/>
    </edge>
    <edge id="gneE140" from="gneJ56" to="gneJ134" priority="1">
        <lane id="gneE140_0" index="0" speed="13.89" length="6.75" shape="-188.37,48.35 -181.63,48.35"/>
    </edge>
    <edge id="gneE141" from="gneJ54" to="gneJ135" priority="1">
        <lane id="gneE141_0" index="0" speed="13.89" length="6.75" shape="-188.37,58.35 -181.63,58.35"/>
    </edge>
    <edge id="gneE142" from="gneJ52" to="gneJ136" priority="1">
        <lane id="gneE142_0" index="0" speed="13.89" length="7.82" shape="-188.91,68.35 -181.09,68.35"/>
    </edge>
    <edge id="gneE143" from="gneJ136" to="gneJ18" priority="1">
        <lane id="gneE143_0" index="0" speed="13.89" length="47.97" shape="-167.97,68.35 -120.00,68.35"/>
    </edge>
    <edge id="gneE144" from="gneJ135" to="gneJ16" priority="1">
        <lane id="gneE144_0" index="0" speed="13.89" length="47.97" shape="-167.97,58.35 -120.00,58.35"/>
    </edge>
    <edge id="gneE145" from="gneJ134" to="gneJ14" priority="1">
        <lane id="gneE145_0" index="0" speed="13.89" length="48.51" shape="-168.51,48.35 -120.00,48.35"/>
    </edge>
    <edge id="gneE148" from="gneJ77" to="gneJ141" priority="1">