<?xml version="1.0" encoding="UTF-8"?>

<!-- generated on 6/25/2018 12:05:20 PM by Netedit Version 0.32.0
<?xml version="1.0" encoding="UTF-8"?>

<configuration xmlns:xsi="http://www.w3.org/2001/XMLSchema-instance" xsi:noNamespaceSchemaLocation="http://sumo.dlr.de/xsd/netconvertConfiguration.xsd">

    <input>
        <sumo-net-file value="C:\Users\abeld\Downloads\Intersection\DiamondSliplanes\diamondInterchangeSliplanes.net.xml"/>
    </input>

    <output>
        <output-file value="C:\Users\abeld\Downloads\Intersection\DiamondSliplanes\diamondInterchangeSliplanes.net.xml"/>
    </output>

    <processing>
        <no-turnarounds value="true"/>
        <offset.disable-normalization value="true"/>
        <lefthand value="false"/>
        <junctions.corner-detail value="0"/>
        <rectangular-lane-cut value="false"/>
        <walkingareas value="false"/>
    </processing>

</configuration>
-->

<net version="0.27" xmlns:xsi="http://www.w3.org/2001/XMLSchema-instance" xsi:noNamespaceSchemaLocation="http://sumo.dlr.de/xsd/net_file.xsd">

    <location netOffset="0.00,0.00" convBoundary="-620.00,-570.00,800.00,780.00" origBoundary="-10000000000.00,-10000000000.00,10000000000.00,10000000000.00" projParameter="!"/>

    <edge id=":gneJ10_0" function="internal">
        <lane id=":gneJ10_0_0" index="0" speed="13.89" length="0.10" shape="38.35,250.00 38.35,250.00"/>
    </edge>
    <edge id=":gneJ102_0" function="internal">
        <lane id=":gneJ102_0_0" index="0" speed="13.89" length="15.10" shape="290.46,88.95 287.38,86.64 284.30,84.26 281.06,82.40 277.52,81.65"/>
    </edge>
    <edge id=":gneJ102_1" function="internal">
        <lane id=":gneJ102_1_0" index="0" speed="13.89" length="15.15" shape="292.03,85.75 288.46,84.44 284.87,83.11 281.23,82.07 277.52,81.65"/>
    </edge>
    <edge id=":gneJ102_2" function="internal">
        <lane id=":gneJ102_2_0" index="0" speed="13.89" length="13.58" shape="291.09,81.65 277.52,81.65"/>
    </edge>
    <edge id=":gneJ103_0" function="internal">
        <lane id=":gneJ103_0_0" index="0" speed="13.89" length="13.12" shape="290.51,95.24 287.25,94.01 284.34,92.85 281.37,91.99 277.97,91.65"/>
    </edge>
    <edge id=":gneJ103_1" function="internal">
        <lane id=":gneJ103_1_0" index="0" speed="13.89" length="13.65" shape="291.63,91.65 277.97,91.65"/>
    </edge>
    <edge id=":gneJ103_2" function="internal">
        <lane id=":gneJ103_2_0" index="0" speed="13.89" length="13.63" shape="291.04,88.06 287.70,89.29 284.60,90.45 281.46,91.31 277.97,91.65"/>
    </edge>
    <edge id=":gneJ104_0" function="internal">
        <lane id=":gneJ104_0_0" index="0" speed="13.89" length="13.11" shape="291.63,101.65 278.52,101.65"/>
    </edge>
    <edge id=":gneJ104_1" function="internal">
        <lane id=":gneJ104_1_0" index="0" speed="13.89" length="15.68" shape="293.49,97.24 289.85,98.60 286.10,100.04 282.30,101.18 278.52,101.65"/>
    </edge>
    <edge id=":gneJ104_2" function="internal">
        <lane id=":gneJ104_2_0" index="0" speed="13.89" length="15.65" shape="291.92,94.04 288.77,96.40 285.53,98.88 282.13,100.85 278.52,101.65"/>
    </edge>
    <edge id=":gneJ11_0" function="internal">
        <lane id=":gneJ11_0_0" index="0" speed="13.89" length="0.10" shape="38.35,-100.00 38.35,-100.00"/>
    </edge>
    <edge id=":gneJ12_0" function="internal">
        <lane id=":gneJ12_0_0" index="0" speed="13.89" length="9.70" shape="28.35,252.33 28.09,249.55 27.34,247.74 26.17,246.05 24.63,243.60"/>
    </edge>
    <edge id=":gneJ12_1" function="internal">
        <lane id=":gneJ12_1_0" index="0" speed="13.89" length="9.68" shape="28.35,252.33 28.35,242.65"/>
    </edge>
    <edge id=":gneJ134_0" function="internal">
        <lane id=":gneJ134_0_0" index="0" speed="13.89" length="13.11" shape="-181.63,48.35 -168.52,48.35"/>
    </edge>
    <edge id=":gneJ134_1" function="internal">
        <lane id=":gneJ134_1_0" index="0" speed="13.89" length="15.68" shape="-183.49,52.76 -179.85,51.40 -176.10,49.96 -172.30,48.82 -168.52,48.35"/>
    </edge>
    <edge id=":gneJ134_2" function="internal">
        <lane id=":gneJ134_2_0" index="0" speed="13.89" length="15.65" shape="-181.92,55.96 -178.77,53.60 -175.53,51.12 -172.13,49.15 -168.52,48.35"/>
    </edge>
    <edge id=":gneJ135_0" function="internal">
        <lane id=":gneJ135_0_0" index="0" speed="13.89" length="13.12" shape="-180.51,54.76 -177.25,55.99 -174.34,57.15 -171.37,58.01 -167.97,58.35"/>
    </edge>
    <edge id=":gneJ135_1" function="internal">
        <lane id=":gneJ135_1_0" index="0" speed="13.89" length="13.65" shape="-181.63,58.35 -167.97,58.35"/>
    </edge>
    <edge id=":gneJ135_2" function="internal">
        <lane id=":gneJ135_2_0" index="0" speed="13.89" length="13.63" shape="-181.04,61.94 -177.70,60.71 -174.60,59.55 -171.46,58.69 -167.97,58.35"/>
    </edge>
    <edge id=":gneJ136_0" function="internal">
        <lane id=":gneJ136_0_0" index="0" speed="13.89" length="15.10" shape="-180.46,61.05 -177.38,63.36 -174.30,65.74 -171.06,67.60 -167.52,68.35"/>
    </edge>
    <edge id=":gneJ136_1" function="internal">
        <lane id=":gneJ136_1_0" index="0" speed="13.89" length="15.15" shape="-182.03,64.25 -178.46,65.56 -174.87,66.89 -171.23,67.93 -167.52,68.35"/>
    </edge>
    <edge id=":gneJ136_2" function="internal">
        <lane id=":gneJ136_2_0" index="0" speed="13.89" length="13.58" shape="-181.09,68.35 -167.52,68.35"/>
    </edge>
    <edge id=":gneJ14_0" function="internal">
        <lane id=":gneJ14_0_0" index="0" speed="13.89" length="10.90" shape="-122.19,48.35 -119.14,48.06 -116.98,47.28 -114.89,46.11 -112.09,44.68"/>
    </edge>
    <edge id=":gneJ14_1" function="internal">
        <lane id=":gneJ14_1_0" index="0" speed="13.89" length="10.88" shape="-122.19,48.35 -111.31,48.35"/>
    </edge>
    <edge id=":gneJ141_0" function="internal">
        <lane id=":gneJ141_0_0" index="0" speed="13.89" length="13.58" shape="48.35,311.09 48.35,297.52"/>
    </edge>
    <edge id=":gneJ141_1" function="internal">
        <lane id=":gneJ141_1_0" index="0" speed="13.89" length="15.10" shape="41.05,310.46 43.36,307.38 45.74,304.30 47.60,301.06 48.35,297.52"/>
    </edge>
    <edge id=":gneJ141_2" function="internal">
        <lane id=":gneJ141_2_0" index="0" speed="13.89" length="15.15" shape="44.25,312.03 45.56,308.46 46.89,304.87 47.93,301.23 48.35,297.52"/>
    </edge>
    <edge id=":gneJ142_0" function="internal">
        <lane id=":gneJ142_0_0" index="0" speed="13.89" length="13.65" shape="38.35,311.63 38.35,297.97"/>
    </edge>
    <edge id=":gneJ142_1" function="internal">
        <lane id=":gneJ142_1_0" index="0" speed="13.89" length="13.63" shape="41.94,311.04 40.71,307.70 39.55,304.60 38.69,301.46 38.35,297.97"/>
    </edge>
    <edge id=":gneJ142_2" function="internal">
        <lane id=":gneJ142_2_0" index="0" speed="13.89" length="13.12" shape="34.76,310.51 35.99,307.25 37.15,304.34 38.01,301.37 38.35,297.97"/>
    </edge>
    <edge id=":gneJ143_0" function="internal">
        <lane id=":gneJ143_0_0" index="0" speed="13.89" length="13.11" shape="28.35,311.63 28.35,298.52"/>
    </edge>
    <edge id=":gneJ143_1" function="internal">
        <lane id=":gneJ143_1_0" index="0" speed="13.89" length="15.68" shape="32.76,313.49 31.40,309.85 29.96,306.10 28.82,302.30 28.35,298.52"/>
    </edge>
    <edge id=":gneJ143_2" function="internal">
        <lane id=":gneJ143_2_0" index="0" speed="13.89" length="15.65" shape="35.96,311.92 33.60,308.77 31.12,305.53 29.15,302.13 28.35,298.52"/>
    </edge>
    <edge id=":gneJ145_0" function="internal">
        <lane id=":gneJ145_0_0" index="0" speed="13.89" length="13.11" shape="81.65,-161.63 81.65,-148.52"/>
    </edge>
    <edge id=":gneJ145_1" function="internal">
        <lane id=":gneJ145_1_0" index="0" speed="13.89" length="15.68" shape="77.24,-163.49 78.60,-159.85 80.04,-156.10 81.18,-152.30 81.65,-148.52"/>
    </edge>
    <edge id=":gneJ145_2" function="internal">
        <lane id=":gneJ145_2_0" index="0" speed="13.89" length="15.65" shape="74.04,-161.92 76.40,-158.77 78.88,-155.53 80.85,-152.13 81.65,-148.52"/>
    </edge>
    <edge id=":gneJ146_0" function="internal">
        <lane id=":gneJ146_0_0" index="0" speed="13.89" length="13.12" shape="75.24,-160.51 74.01,-157.25 72.85,-154.34 71.99,-151.37 71.65,-147.97"/>
    </edge>
    <edge id=":gneJ146_1" function="internal">
        <lane id=":gneJ146_1_0" index="0" speed="13.89" length="13.65" shape="71.65,-161.63 71.65,-147.97"/>
    </edge>
    <edge id=":gneJ146_2" function="internal">
        <lane id=":gneJ146_2_0" index="0" speed="13.89" length="13.63" shape="68.06,-161.04 69.29,-157.70 70.45,-154.60 71.31,-151.46 71.65,-147.97"/>
    </edge>
    <edge id=":gneJ147_0" function="internal">
        <lane id=":gneJ147_0_0" index="0" speed="13.89" length="15.10" shape="68.95,-160.46 66.64,-157.38 64.26,-154.30 62.40,-151.06 61.65,-147.52"/>
    </edge>
    <edge id=":gneJ147_1" function="internal">
        <lane id=":gneJ147_1_0" index="0" speed="13.89" length="15.15" shape="65.75,-162.03 64.44,-158.46 63.11,-154.87 62.07,-151.23 61.65,-147.52"/>
    </edge>
    <edge id=":gneJ147_2" function="internal">
        <lane id=":gneJ147_2_0" index="0" speed="13.89" length="13.58" shape="61.65,-161.09 61.65,-147.52"/>
    </edge>
    <edge id=":gneJ15_0" function="internal">
        <lane id=":gneJ15_0_0" index="0" speed="13.89" length="10.90" shape="222.09,44.68 224.89,46.11 226.98,47.28 229.14,48.06 232.19,48.35"/>
    </edge>
    <edge id=":gneJ15_1" function="internal">
        <lane id=":gneJ15_1_0" index="0" speed="13.89" length="10.88" shape="221.31,48.35 232.19,48.35"/>
    </edge>
    <edge id=":gneJ16_0" function="internal">
        <lane id=":gneJ16_0_0" index="0" speed="13.89" length="0.10" shape="-120.00,58.35 -120.00,58.35"/>
    </edge>
    <edge id=":gneJ165_0" function="internal">
        <lane id=":gneJ165_0_0" index="0" speed="13.89" length="9.68" shape="28.35,-92.65 28.35,-102.33"/>
    </edge>
    <edge id=":gneJ165_1" function="internal">
        <lane id=":gneJ165_1_0" index="0" speed="13.89" length="9.70" shape="24.63,-93.60 26.17,-96.05 27.34,-97.74 28.09,-99.55 28.35,-102.33"/>
    </edge>
    <edge id=":gneJ17_0" function="internal">
        <lane id=":gneJ17_0_0" index="0" speed="13.89" length="0.10" shape="230.00,58.35 230.00,58.35"/>
    </edge>
    <edge id=":gneJ18_0" function="internal">
        <lane id=":gneJ18_0_0" index="0" speed="13.89" length="0.10" shape="-120.00,68.35 -120.00,68.35"/>
    </edge>
    <edge id=":gneJ19_0" function="internal">
        <lane id=":gneJ19_0_0" index="0" speed="13.89" length="0.10" shape="230.00,68.35 230.00,68.35"/>
    </edge>
    <edge id=":gneJ2_0" function="internal">
        <lane id=":gneJ2_0_0" index="0" speed="13.89" length="0.10" shape="61.65,-100.00 61.65,-100.00"/>
    </edge>
    <edge id=":gneJ20_0" function="internal">
        <lane id=":gneJ20_0_0" index="0" speed="13.89" length="0.10" shape="230.00,81.65 230.00,81.65"/>
    </edge>
    <edge id=":gneJ207_0" function="internal">
        <lane id=":gneJ207_0_0" index="0" speed="13.89" length="0.10" shape="61.65,250.00 61.65,250.00"/>
    </edge>
    <edge id=":gneJ208_0" function="internal">
        <lane id=":gneJ208_0_0" index="0" speed="13.89" length="0.10" shape="48.35,-100.00 48.35,-100.00"/>
    </edge>
    <edge id=":gneJ209_0" function="internal">
        <lane id=":gneJ209_0_0" index="0" speed="13.89" length="6.58" shape="-33.05,9.55 -31.40,8.63 -30.49,7.67 -29.84,6.43 -28.97,4.67"/>
    </edge>
    <edge id=":gneJ209_1" function="internal">
        <lane id=":gneJ209_1_0" index="0" speed="13.89" length="6.46" shape="-33.05,9.55 -31.29,8.82 -30.02,8.46 -28.70,8.36 -26.78,8.35"/>
    </edge>
    <edge id=":gneJ21_0" function="internal">
        <lane id=":gneJ21_0_0" index="0" speed="13.89" length="0.10" shape="-120.00,81.65 -120.00,81.65"/>
    </edge>
    <edge id=":gneJ211_0" function="internal">
        <lane id=":gneJ211_0_0" index="0" speed="13.89" length="6.58" shape="138.97,4.67 139.84,6.43 140.49,7.67 141.40,8.63 143.05,9.55"/>
    </edge>
    <edge id=":gneJ211_1" function="internal">
        <lane id=":gneJ211_1_0" index="0" speed="13.89" length="6.46" shape="136.78,8.35 138.70,8.36 140.02,8.46 141.29,8.82 143.05,9.55"/>
    </edge>
    <edge id=":gneJ212_0" function="internal">
        <lane id=":gneJ212_0_0" index="0" speed="13.89" length="6.58" shape="143.05,140.45 141.40,141.37 140.49,142.33 139.84,143.57 138.97,145.33"/>
    </edge>
    <edge id=":gneJ212_1" function="internal">
        <lane id=":gneJ212_1_0" index="0" speed="13.89" length="6.46" shape="143.05,140.45 141.29,141.18 140.02,141.54 138.70,141.64 136.78,141.65"/>
    </edge>
    <edge id=":gneJ216_0" function="internal">
        <lane id=":gneJ216_0_0" index="0" speed="13.89" length="5.00" shape="84.75,141.65 83.39,141.84 82.43,142.43 81.84,143.39 81.65,144.75"/>
    </edge>
    <edge id=":gneJ216_1" function="internal">
        <lane id=":gneJ216_1_0" index="0" speed="13.89" length="6.20" shape="84.75,141.65 78.55,141.65"/>
    </edge>
    <edge id=":gneJ216_2" function="internal">
        <lane id=":gneJ216_2_0" index="0" speed="13.89" length="6.20" shape="81.65,138.55 81.65,144.75"/>
    </edge>
    <edge id=":gneJ216_3" function="internal">
        <lane id=":gneJ216_3_0" index="0" speed="13.89" length="1.54" shape="81.65,138.55 81.46,139.91 81.37,140.05"/>
    </edge>
    <edge id=":gneJ216_4" function="internal">
        <lane id=":gneJ216_4_0" index="0" speed="13.89" length="3.46" shape="81.37,140.05 80.88,140.88 79.91,141.46 78.55,141.65"/>
    </edge>
    <edge id=":gneJ217_0" function="internal">
        <lane id=":gneJ217_0_0" index="0" speed="13.89" length="5.00" shape="74.75,141.65 73.39,141.84 72.43,142.43 71.84,143.39 71.65,144.75"/>
    </edge>
    <edge id=":gneJ217_1" function="internal">
        <lane id=":gneJ217_1_0" index="0" speed="13.89" length="6.20" shape="74.75,141.65 68.55,141.65"/>
    </edge>
    <edge id=":gneJ217_2" function="internal">
        <lane id=":gneJ217_2_0" index="0" speed="13.89" length="6.20" shape="71.65,138.55 71.65,144.75"/>
    </edge>
    <edge id=":gneJ217_3" function="internal">
        <lane id=":gneJ217_3_0" index="0" speed="13.89" length="1.54" shape="71.65,138.55 71.46,139.91 71.37,140.05"/>
    </edge>
    <edge id=":gneJ217_4" function="internal">
        <lane id=":gneJ217_4_0" index="0" speed="13.89" length="3.46" shape="71.37,140.05 70.88,140.88 69.91,141.46 68.55,141.65"/>
    </edge>
    <edge id=":gneJ218_0" function="internal">
        <lane id=":gneJ218_0_0" index="0" speed="13.89" length="5.00" shape="64.75,141.65 63.39,141.84 62.43,142.43 61.84,143.39 61.65,144.75"/>
    </edge>
    <edge id=":gneJ218_1" function="internal">
        <lane id=":gneJ218_1_0" index="0" speed="13.89" length="6.20" shape="64.75,141.65 58.55,141.65"/>
    </edge>
    <edge id=":gneJ218_2" function="internal">
        <lane id=":gneJ218_2_0" index="0" speed="13.89" length="6.20" shape="61.65,138.55 61.65,144.75"/>
    </edge>
    <edge id=":gneJ218_3" function="internal">
        <lane id=":gneJ218_3_0" index="0" speed="13.89" length="1.54" shape="61.65,138.55 61.46,139.91 61.37,140.05"/>
    </edge>
    <edge id=":gneJ218_4" function="internal">
        <lane id=":gneJ218_4_0" index="0" speed="13.89" length="3.46" shape="61.37,140.05 60.88,140.88 59.91,141.46 58.55,141.65"/>
    </edge>
    <edge id=":gneJ219_0" function="internal">
        <lane id=":gneJ219_0_0" index="0" speed="13.89" length="5.00" shape="48.35,144.75 48.16,143.39 47.58,142.43 46.61,141.84 45.25,141.65"/>
    </edge>
    <edge id=":gneJ219_1" function="internal">
        <lane id=":gneJ219_1_0" index="0" speed="13.89" length="6.20" shape="48.35,144.75 48.35,138.55"/>
    </edge>
    <edge id=":gneJ219_2" function="internal">
        <lane id=":gneJ219_2_0" index="0" speed="13.89" length="6.20" shape="51.45,141.65 45.25,141.65"/>
    </edge>
    <edge id=":gneJ219_3" function="internal">
        <lane id=":gneJ219_3_0" index="0" speed="13.89" length="1.54" shape="51.45,141.65 50.09,141.46 49.95,141.37"/>
    </edge>
    <edge id=":gneJ219_4" function="internal">
        <lane id=":gneJ219_4_0" index="0" speed="13.89" length="3.46" shape="49.95,141.37 49.13,140.88 48.54,139.91 48.35,138.55"/>
    </edge>
    <edge id=":gneJ22_0" function="internal">
        <lane id=":gneJ22_0_0" index="0" speed="13.89" length="0.10" shape="230.00,91.65 230.00,91.65"/>
    </edge>
    <edge id=":gneJ220_0" function="internal">
        <lane id=":gneJ220_0_0" index="0" speed="13.89" length="5.00" shape="38.35,144.75 38.16,143.39 37.58,142.43 36.61,141.84 35.25,141.65"/>
    </edge>
    <edge id=":gneJ220_1" function="internal">
        <lane id=":gneJ220_1_0" index="0" speed="13.89" length="6.20" shape="38.35,144.75 38.35,138.55"/>
    </edge>
    <edge id=":gneJ220_2" function="internal">
        <lane id=":gneJ220_2_0" index="0" speed="13.89" length="6.20" shape="41.45,141.65 35.25,141.65"/>
    </edge>
    <edge id=":gneJ220_3" function="internal">
        <lane id=":gneJ220_3_0" index="0" speed="13.89" length="1.54" shape="41.45,141.65 40.09,141.46 39.95,141.37"/>
    </edge>
    <edge id=":gneJ220_4" function="internal">
        <lane id=":gneJ220_4_0" index="0" speed="13.89" length="3.46" shape="39.95,141.37 39.13,140.88 38.54,139.91 38.35,138.55"/>
    </edge>
    <edge id=":gneJ221_0" function="internal">
        <lane id=":gneJ221_0_0" index="0" speed="13.89" length="5.00" shape="28.35,144.75 28.16,143.39 27.57,142.43 26.61,141.84 25.25,141.65"/>
    </edge>
    <edge id=":gneJ221_1" function="internal">
        <lane id=":gneJ221_1_0" index="0" speed="13.89" length="6.20" shape="28.35,144.75 28.35,138.55"/>
    </edge>
    <edge id=":gneJ221_2" function="internal">
        <lane id=":gneJ221_2_0" index="0" speed="13.89" length="6.20" shape="31.45,141.65 25.25,141.65"/>
    </edge>
    <edge id=":gneJ221_3" function="internal">
        <lane id=":gneJ221_3_0" index="0" speed="13.89" length="1.54" shape="31.45,141.65 30.09,141.46 29.95,141.37"/>
    </edge>
    <edge id=":gneJ221_4" function="internal">
        <lane id=":gneJ221_4_0" index="0" speed="13.89" length="3.46" shape="29.95,141.37 29.13,140.88 28.54,139.91 28.35,138.55"/>
    </edge>
    <edge id=":gneJ222_0" function="internal">
        <lane id=":gneJ222_0_0" index="0" speed="13.89" length="6.58" shape="-28.97,145.33 -29.84,143.57 -30.49,142.33 -31.40,141.37 -33.05,140.45"/>
    </edge>
    <edge id=":gneJ222_1" function="internal">
        <lane id=":gneJ222_1_0" index="0" speed="13.89" length="6.46" shape="-26.78,141.65 -28.70,141.64 -30.02,141.54 -31.29,141.18 -33.05,140.45"/>
    </edge>
    <edge id=":gneJ223_0" function="internal">
        <lane id=":gneJ223_0_0" index="0" speed="13.89" length="6.20" shape="28.35,11.45 28.35,5.25"/>
    </edge>
    <edge id=":gneJ223_1" function="internal">
        <lane id=":gneJ223_1_0" index="0" speed="13.89" length="1.54" shape="28.35,11.45 28.54,10.09 28.63,9.95"/>
    </edge>
    <edge id=":gneJ223_4" function="internal">
        <lane id=":gneJ223_4_0" index="0" speed="13.89" length="3.46" shape="28.63,9.95 29.13,9.12 30.09,8.54 31.45,8.35"/>
    </edge>
    <edge id=":gneJ223_2" function="internal">
        <lane id=":gneJ223_2_0" index="0" speed="13.89" length="5.00" shape="25.25,8.35 26.61,8.16 27.57,7.57 28.16,6.61 28.35,5.25"/>
    </edge>
    <edge id=":gneJ223_3" function="internal">
        <lane id=":gneJ223_3_0" index="0" speed="13.89" length="6.20" shape="25.25,8.35 31.45,8.35"/>
    </edge>
    <edge id=":gneJ224_0" function="internal">
        <lane id=":gneJ224_0_0" index="0" speed="13.89" length="6.20" shape="38.35,11.45 38.35,5.25"/>
    </edge>
    <edge id=":gneJ224_1" function="internal">
        <lane id=":gneJ224_1_0" index="0" speed="13.89" length="1.54" shape="38.35,11.45 38.54,10.09 38.63,9.95"/>
    </edge>
    <edge id=":gneJ224_4" function="internal">
        <lane id=":gneJ224_4_0" index="0" speed="13.89" length="3.46" shape="38.63,9.95 39.13,9.12 40.09,8.54 41.45,8.35"/>
    </edge>
    <edge id=":gneJ224_2" function="internal">
        <lane id=":gneJ224_2_0" index="0" speed="13.89" length="5.00" shape="35.25,8.35 36.61,8.16 37.57,7.57 38.16,6.61 38.35,5.25"/>
    </edge>
    <edge id=":gneJ224_3" function="internal">
        <lane id=":gneJ224_3_0" index="0" speed="13.89" length="6.20" shape="35.25,8.35 41.45,8.35"/>
    </edge>
    <edge id=":gneJ225_0" function="internal">
        <lane id=":gneJ225_0_0" index="0" speed="13.89" length="6.20" shape="48.35,11.45 48.35,5.25"/>
    </edge>
    <edge id=":gneJ225_1" function="internal">
        <lane id=":gneJ225_1_0" index="0" speed="13.89" length="1.54" shape="48.35,11.45 48.54,10.09 48.63,9.95"/>
    </edge>
    <edge id=":gneJ225_4" function="internal">
        <lane id=":gneJ225_4_0" index="0" speed="13.89" length="3.46" shape="48.63,9.95 49.13,9.12 50.09,8.54 51.45,8.35"/>
    </edge>
    <edge id=":gneJ225_2" function="internal">
        <lane id=":gneJ225_2_0" index="0" speed="13.89" length="5.00" shape="45.25,8.35 46.61,8.16 47.57,7.57 48.16,6.61 48.35,5.25"/>
    </edge>
    <edge id=":gneJ225_3" function="internal">
        <lane id=":gneJ225_3_0" index="0" speed="13.89" length="6.20" shape="45.25,8.35 51.45,8.35"/>
    </edge>
    <edge id=":gneJ226_0" function="internal">
        <lane id=":gneJ226_0_0" index="0" speed="13.89" length="5.00" shape="61.65,5.25 61.84,6.61 62.42,7.57 63.39,8.16 64.75,8.35"/>
    </edge>
    <edge id=":gneJ226_1" function="internal">
        <lane id=":gneJ226_1_0" index="0" speed="13.89" length="6.20" shape="61.65,5.25 61.65,11.45"/>
    </edge>
    <edge id=":gneJ226_2" function="internal">
        <lane id=":gneJ226_2_0" index="0" speed="13.89" length="6.20" shape="58.55,8.35 64.75,8.35"/>
    </edge>
    <edge id=":gneJ226_3" function="internal">
        <lane id=":gneJ226_3_0" index="0" speed="13.89" length="1.54" shape="58.55,8.35 59.91,8.54 60.05,8.63"/>
    </edge>
    <edge id=":gneJ226_4" function="internal">
        <lane id=":gneJ226_4_0" index="0" speed="13.89" length="3.46" shape="60.05,8.63 60.88,9.13 61.46,10.09 61.65,11.45"/>
    </edge>
    <edge id=":gneJ227_0" function="internal">
        <lane id=":gneJ227_0_0" index="0" speed="13.89" length="5.00" shape="71.65,5.25 71.84,6.61 72.43,7.57 73.39,8.16 74.75,8.35"/>
    </edge>
    <edge id=":gneJ227_1" function="internal">
        <lane id=":gneJ227_1_0" index="0" speed="13.89" length="6.20" shape="71.65,5.25 71.65,11.45"/>
    </edge>
    <edge id=":gneJ227_2" function="internal">
        <lane id=":gneJ227_2_0" index="0" speed="13.89" length="6.20" shape="68.55,8.35 74.75,8.35"/>
    </edge>
    <edge id=":gneJ227_3" function="internal">
        <lane id=":gneJ227_3_0" index="0" speed="13.89" length="1.54" shape="68.55,8.35 69.91,8.54 70.05,8.63"/>
    </edge>
    <edge id=":gneJ227_4" function="internal">
        <lane id=":gneJ227_4_0" index="0" speed="13.89" length="3.46" shape="70.05,8.63 70.88,9.13 71.46,10.09 71.65,11.45"/>
    </edge>
    <edge id=":gneJ228_0" function="internal">
        <lane id=":gneJ228_0_0" index="0" speed="13.89" length="5.00" shape="81.65,5.25 81.84,6.61 82.43,7.57 83.39,8.16 84.75,8.35"/>
    </edge>
    <edge id=":gneJ228_1" function="internal">
        <lane id=":gneJ228_1_0" index="0" speed="13.89" length="6.20" shape="81.65,5.25 81.65,11.45"/>
    </edge>
    <edge id=":gneJ228_2" function="internal">
        <lane id=":gneJ228_2_0" index="0" speed="13.89" length="6.20" shape="78.55,8.35 84.75,8.35"/>
    </edge>
    <edge id=":gneJ228_3" function="internal">
        <lane id=":gneJ228_3_0" index="0" speed="13.89" length="1.54" shape="78.55,8.35 79.91,8.54 80.05,8.63"/>
    </edge>
    <edge id=":gneJ228_4" function="internal">
        <lane id=":gneJ228_4_0" index="0" speed="13.89" length="3.46" shape="80.05,8.63 80.88,9.13 81.46,10.09 81.65,11.45"/>
    </edge>
    <edge id=":gneJ24_0" function="internal">
        <lane id=":gneJ24_0_0" index="0" speed="13.89" length="10.90" shape="232.19,101.65 229.14,101.94 226.98,102.72 224.89,103.89 222.09,105.32"/>
    </edge>
    <edge id=":gneJ24_1" function="internal">
        <lane id=":gneJ24_1_0" index="0" speed="13.89" length="10.88" shape="232.19,101.65 221.31,101.65"/>
    </edge>
    <edge id=":gneJ25_0" function="internal">
        <lane id=":gneJ25_0_0" index="0" speed="13.89" length="10.90" shape="-112.09,105.32 -114.89,103.89 -116.98,102.72 -119.14,101.94 -122.19,101.65"/>
    </edge>
    <edge id=":gneJ25_1" function="internal">
        <lane id=":gneJ25_1_0" index="0" speed="13.89" length="10.88" shape="-111.31,101.65 -122.19,101.65"/>
    </edge>
    <edge id=":gneJ38_0" function="internal">
        <lane id=":gneJ38_0_0" index="0" speed="13.89" length="13.11" shape="768.52,48.35 781.63,48.35"/>
    </edge>
    <edge id=":gneJ38_1" function="internal">
        <lane id=":gneJ38_1_0" index="0" speed="13.89" length="15.68" shape="768.52,48.35 772.30,48.82 776.10,49.96 779.85,51.40 783.49,52.76"/>
    </edge>
    <edge id=":gneJ38_2" function="internal">
        <lane id=":gneJ38_2_0" index="0" speed="13.89" length="15.65" shape="768.52,48.35 772.13,49.15 775.53,51.12 778.77,53.60 781.92,55.96"/>
    </edge>
    <edge id=":gneJ39_0" function="internal">
        <lane id=":gneJ39_0_0" index="0" speed="13.89" length="12.62" shape="768.51,58.35 771.83,58.01 774.60,57.15 777.34,55.99 780.51,54.76"/>
    </edge>
    <edge id=":gneJ39_1" function="internal">
        <lane id=":gneJ39_1_0" index="0" speed="13.89" length="13.12" shape="768.51,58.35 781.63,58.35"/>
    </edge>
    <edge id=":gneJ39_2" function="internal">
        <lane id=":gneJ39_2_0" index="0" speed="13.89" length="13.12" shape="768.51,58.35 771.91,58.69 774.87,59.55 777.79,60.71 781.04,61.94"/>
    </edge>
    <edge id=":gneJ4_0" function="internal">
        <lane id=":gneJ4_0_0" index="0" speed="13.89" length="0.10" shape="71.65,-100.00 71.65,-100.00"/>
    </edge>
    <edge id=":gneJ40_0" function="internal">
        <lane id=":gneJ40_0_0" index="0" speed="13.89" length="15.10" shape="767.52,68.35 771.06,67.60 774.30,65.74 777.38,63.36 780.46,61.05"/>
    </edge>
    <edge id=":gneJ40_1" function="internal">
        <lane id=":gneJ40_1_0" index="0" speed="13.89" length="15.15" shape="767.52,68.35 771.23,67.93 774.87,66.89 778.46,65.56 782.03,64.25"/>
    </edge>
    <edge id=":gneJ40_2" function="internal">
        <lane id=":gneJ40_2_0" index="0" speed="13.89" length="13.58" shape="767.52,68.35 781.09,68.35"/>
    </edge>
    <edge id=":gneJ44_0" function="internal">
        <lane id=":gneJ44_0_0" index="0" speed="13.89" length="13.11" shape="-588.52,101.65 -601.63,101.65"/>
    </edge>
    <edge id=":gneJ44_1" function="internal">
        <lane id=":gneJ44_1_0" index="0" speed="13.89" length="15.68" shape="-588.52,101.65 -592.30,101.18 -596.10,100.04 -599.85,98.60 -603.49,97.24"/>
    </edge>
    <edge id=":gneJ44_2" function="internal">
        <lane id=":gneJ44_2_0" index="0" speed="13.89" length="15.65" shape="-588.52,101.65 -592.13,100.85 -595.53,98.88 -598.77,96.40 -601.92,94.04"/>
    </edge>
    <edge id=":gneJ46_0" function="internal">
        <lane id=":gneJ46_0_0" index="0" speed="13.89" length="12.62" shape="-588.51,91.65 -591.83,91.99 -594.60,92.85 -597.34,94.01 -600.51,95.24"/>
    </edge>
    <edge id=":gneJ46_1" function="internal">
        <lane id=":gneJ46_1_0" index="0" speed="13.89" length="13.12" shape="-588.51,91.65 -601.63,91.65"/>
    </edge>
    <edge id=":gneJ46_2" function="internal">
        <lane id=":gneJ46_2_0" index="0" speed="13.89" length="13.12" shape="-588.51,91.65 -591.91,91.31 -594.87,90.45 -597.79,89.29 -601.04,88.06"/>
    </edge>
    <edge id=":gneJ47_0" function="internal">
        <lane id=":gneJ47_0_0" index="0" speed="13.89" length="15.10" shape="-587.52,81.65 -591.06,82.40 -594.30,84.26 -597.38,86.64 -600.46,88.95"/>
    </edge>
    <edge id=":gneJ47_1" function="internal">
        <lane id=":gneJ47_1_0" index="0" speed="13.89" length="15.15" shape="-587.52,81.65 -591.23,82.07 -594.87,83.11 -598.46,84.44 -602.03,85.75"/>
    </edge>
    <edge id=":gneJ47_2" function="internal">
        <lane id=":gneJ47_2_0" index="0" speed="13.89" length="13.58" shape="-587.52,81.65 -601.09,81.65"/>
    </edge>
    <edge id=":gneJ5_0" function="internal">
        <lane id=":gneJ5_0_0" index="0" speed="13.89" length="0.10" shape="71.65,250.00 71.65,250.00"/>
    </edge>
    <edge id=":gneJ52_0" function="internal">
        <lane id=":gneJ52_0_0" index="0" speed="13.89" length="15.10" shape="-202.48,68.35 -198.94,67.60 -195.70,65.74 -192.62,63.36 -189.54,61.05"/>
    </edge>
    <edge id=":gneJ52_1" function="internal">
        <lane id=":gneJ52_1_0" index="0" speed="13.89" length="15.15" shape="-202.48,68.35 -198.77,67.93 -195.13,66.89 -191.54,65.56 -187.97,64.25"/>
    </edge>
    <edge id=":gneJ52_2" function="internal">
        <lane id=":gneJ52_2_0" index="0" speed="13.89" length="13.58" shape="-202.48,68.35 -188.91,68.35"/>
    </edge>
    <edge id=":gneJ54_0" function="internal">
        <lane id=":gneJ54_0_0" index="0" speed="13.89" length="12.62" shape="-201.49,58.35 -198.17,58.01 -195.40,57.15 -192.66,55.99 -189.49,54.76"/>
    </edge>
    <edge id=":gneJ54_1" function="internal">
        <lane id=":gneJ54_1_0" index="0" speed="13.89" length="13.12" shape="-201.49,58.35 -188.37,58.35"/>
    </edge>