<?xml version="1.0" encoding="UTF-8"?>

<!-- generated on 6/25/2018 5:10:24 PM by Netedit Version 0.32.0
<?xml version="1.0" encoding="UTF-8"?>

<configuration xmlns:xsi="http://www.w3.org/2001/XMLSchema-instance" xsi:noNamespaceSchemaLocation="http://sumo.dlr.de/xsd/netconvertConfiguration.xsd">

    <input>
        <sumo-net-file value="C:\Users\abeld\Downloads\Intersection\DiamondSliplanes\DiamondSlip.net.xml"/>
    </input>

    <output>
        <output-file value="C:\Users\abeld\Downloads\Intersection\DiamondSliplanes\DiamondSlip.net.xml"/>
        <plain-output-prefix value="C:\Users\abeld\Downloads\Intersection\DiamondSliplanes\DiamondSlip"/>
    </output>

    <processing>
        <no-turnarounds value="true"/>
        <offset.disable-normalization value="true"/>
        <lefthand value="false"/>
        <junctions.corner-detail value="0"/>
        <rectangular-lane-cut value="false"/>
        <walkingareas value="false"/>
    </processing>

</configuration>
-->

<edges version="0.27" xmlns:xsi="http://www.w3.org/2001/XMLSchema-instance" xsi:noNamespaceSchemaLocation="http://sumo.dlr.de/xsd/edges_file.xsd">
    <edge id="Eeast1" from="sgfsdfgsdfg" to="gneJ58" priority="1" numLanes="1" speed="13.89"/>
    <edge id="Eeast2" from="bngsfgnng" to="gneJ60" priority="1" numLanes="1" speed="13.89"/>
    <edge id="Eeast3" from="dsghsdgsdfg" to="gneJ62" priority="1" numLanes="1" speed="13.89"/>
    <edge id="Enorth1" from="fjhfhjfhj" to="gneJ77" priority="1" numLanes="1" speed="13.89"/>
    <edge id="Enorth2" from="fjfghjhnnvnv" to="gneJ79" priority="1" numLanes="1" speed="13.89"/>
    <edge id="Enorth3" from="qwerjdhjfhj" to="gneJ81" priority="1" numLanes="1" speed="13.89"/>
    <edge id="Esouth1" from="xbvvbxxxxxx" to="gneJ67" priority="1" numLanes="1" speed="13.89"/>
    <edge id="Esouth2" from="fgsdbxcvb" to="gneJ69" priority="1" numLanes="1" speed="13.89"/>
    <edge id="Esouth3" from="xvbxvcbxbvxvcb" to="gneJ71" priority="1" numLanes="1" speed="13.89"/>
    <edge id="Ewest1" from="asdfadf" to="gneJ52" priority="1" numLanes="1" speed="13.89"/>
    <edge id="Ewest2" from="argsbbsdg" to="gneJ54" priority="1" numLanes="1" speed="13.89"/>
    <edge id="Ewest3" from="sfsgnsns" to="gneJ56" priority="1" numLanes="1" speed="13.89"/>
    <edge id="Oeast1" from="gneJ19" to="gneJ40" priority="1" numLanes="1" speed="13.89"/>
    <edge id="Oeast2" from="gneJ17" to="gneJ39" priority="1" numLanes="1" speed="13.89"/>
    <edge id="Oeast3" from="gneJ15" to="gneJ38" priority="1" numLanes="1" speed="13.89"/>
    <edge id="Onorth1" from="gneJ3" to="gneJ75" priority="1" numLanes="1" speed="13.89"/>
    <edge id="Onorth2" from="gneJ5" to="gneJ74" priority="1" numLanes="1" speed="13.89"/>
    <edge id="Onorth3" from="gneJ7" to="gneJ73" priority="1" numLanes="1" speed="13.89"/>
    <edge id="Osouth1" from="gneJ9" to="gneJ65" priority="1" numLanes="1" speed="13.89"/>
    <edge id="Osouth2" from="gneJ11" to="gneJ64" priority="1" numLanes="1" speed="13.89"/>
    <edge id="Osouth3" from="gneJ13" to="gneJ63" priority="1" numLanes="1" speed="13.89"/>
    <edge id="Owest1" from="gneJ21" to="gneJ47" priority="1" numLanes="1" speed="13.89"/>
    <edge id="Owest2" from="gneJ45" to="gneJ46" priority="1" numLanes="1" speed="13.89"/>
    <edge id="Owest3" from="gneJ25" to="gneJ44" priority="1" numLanes="1" speed="13.89"/>
    <edge id="gneE103" from="gneJ102" to="gneJ20" priority="1" numLanes="1" speed="13.89"/>
    <edge id="gneE104" from="gneJ103" to="gneJ22" priority="1" numLanes="1" speed="13.89"/>
    <edge id="gneE106" from="gneJ104" to="gneJ24" priority="1" numLanes="1" speed="13.89"/>
    <edge id="gneE140" from="gneJ56" to="gneJ134" priority="1" numLanes="1" speed="13.89"/>
    <edge id="gneE141" from="gneJ54" to="gneJ135" priority="1" numLanes="1" speed="13.89"/>
    <edge id="gneE142" from="gneJ52" to="gneJ136" priority="1" numLanes="1" speed="13.89"/>
    <edge id="gneE143" from="gneJ136" to="gneJ18" priority="1" numLanes="1" speed="13.89"/>
    <edge id="gneE144" from="gneJ135" to="gneJ16" priority="1" numLanes="1" speed="13.89"/>
    <edge id="gneE145" from="gneJ134" to="gneJ14" priority="1" numLanes="1" speed="13.89"/>
    <edge id="gneE148" from="gneJ77" to="gneJ141" priority="1" numLanes="1" speed="13.89"/>
    <edge id="gneE149" from="gneJ79" to="gneJ142" priority="1" numLanes="1" speed="13.89"/>
    <edge id="gneE150" from="gneJ81" to="gneJ143" priority="1" numLanes="1" speed="13.89"/>
    <edge id="gneE152" from="gneJ143" to="gneJ12" priority="1" numLanes="1" speed="13.89"/>
    <edge id="gneE153" from="gneJ142" to="gneJ10" priority="1" numLanes="1" speed="13.89"/>
    <edge id="gneE154" from="gneJ141" to="gneJ8" priority="1" numLanes="1" speed="13.89"/>
    <edge id="gneE155" from="gneJ71" to="gneJ145" priority="1" numLanes="1" speed="13.89"/>
    <edge id="gneE156" from="gneJ69" to="gneJ146" priority="1" numLanes="1" speed="13.89"/>
    <edge id="gneE157" from="gneJ67" to="gneJ147" priority="1" numLanes="1" speed="13.89"/>
    <edge id="gneE158" from="gneJ145" to="gneJ6" priority="1" numLanes="1" speed="13.89"/>
    <edge id="gneE159" from="gneJ146" to="gneJ4" priority="1" numLanes="1" speed="13.89"/>
    <edge id="gneE160" from="gneJ147" to="gneJ2" priority="1" numLanes="1" speed="13.89"/>
    <edge id="gneE162" from="gneJ71" to="gneJ146" priority="1" numLanes="1" speed="13.89"/>
    <edge id="gneE163" from="gneJ69" to="gneJ145" priority="1" numLanes="1" speed="13.89"/>
    <edge id="gneE164" from="gneJ69" to="gneJ147" priority="1" numLanes="1" speed="13.89"/>
    <edge id="gneE165" from="gneJ67" to="gneJ146" priority="1" numLanes="1" speed="13.89"/>
    <edge id="gneE166" from="gneJ52" to="gneJ135" priority="1" numLanes="1" speed="13.89"/>
    <edge id="gneE167" from="gneJ54" to="gneJ136" priority="1" numLanes="1" speed="13.89"/>
    <edge id="gneE168" from="gneJ54" to="gneJ134" priority="1" numLanes="1" speed="13.89"/>
    <edge id="gneE169" from="gneJ56" to="gneJ135" priority="1" numLanes="1" speed="13.89"/>
    <edge id="gneE170" from="gneJ81" to="gneJ142" priority="1" numLanes="1" speed="13.89"/>
    <edge id="gneE171" from="gneJ79" to="gneJ143" priority="1" numLanes="1" speed="13.89"/>
    <edge id="gneE172" from="gneJ79" to="gneJ141" priority="1" numLanes="1" speed="13.89"/>
    <edge id="gneE173" from="gneJ77" to="gneJ142" priority="1" numLanes="1" speed="13.89"/>
    <edge id="gneE174" from="gneJ75" to="gjkgjjtytyt" priority="1" numLanes="1" speed="13.89"/>
    <edge id="gneE175" from="gneJ74" to="gjkgjkgjkgjkgkjhk" priority="1" numLanes="1" speed="13.89"/>
    <edge id="gneE176" from="gneJ73" to="lhkl" priority="1" numLanes="1" speed="13.89"/>
    <edge id="gneE177" from="gneJ73" to="gjkgjkgjkgjkgkjhk" priority="1" numLanes="1" speed="13.89"/>
    <edge id="gneE178" from="gneJ74" to="lhkl" priority="1" numLanes="1" speed="13.89"/>
    <edge id="gneE179" from="gneJ74" to="gjkgjjtytyt" priority="1" numLanes="1" speed="13.89"/>
    <edge id="gneE180" from="gneJ75" to="gjkgjkgjkgjkgkjhk" priority="1" numLanes="1" speed="13.89"/>
    <edge id="gneE181" from="gneJ47" to="asdfafnsn" priority="1" numLanes="1" speed="13.89"/>
    <edge id="gneE182" from="gneJ46" to=",j,hmnxgx" priority="1" numLanes="1" speed="13.89"/>
    <edge id="gneE183" from="gneJ44" to="dghdhd" priority="1" numLanes="1" speed="13.89"/>
    <edge id="gneE184" from="gneJ46" to="dghdhd" priority="1" numLanes="1" speed="13.89"/>
    <edge id="gneE185" from="gneJ44" to=",j,hmnxgx" priority="1" numLanes="1" speed="13.89"/>
    <edge id="gneE186" from="gneJ47" to=",j,hmnxgx" priority="1" numLanes="1" speed="13.89"/>
    <edge id="gneE187" from="gneJ46" to="asdfafnsn" priority="1" numLanes="1" speed="13.89"/>
    <edge id="gneE189" from="gneJ38" to="gdhhjhfdhgd" priority="1" numLanes="1" speed="13.89"/>
    <edge id="gneE190" from="gneJ39" to="sfgsfgsfgs" priority="1" numLanes="1" speed="13.89"/>
    <edge id="gneE191" from="gneJ40" to="sdfgsdfgsfg" priority="1" numLanes="1" speed="13.89"/>
    <edge id="gneE197" from="gneJ65" to="xxcvbxcvb" priority="1" numLanes="1" speed="13.89"/>
    <edge id="gneE198" from="gneJ64" to="xvbxvfnd" priority="1" numLanes="1" speed="13.89"/>
    <edge id="gneE199" from="gneJ63" to="luiyukgmnfbg" priority="1" numLanes="1" speed="13.89"/>
    <edge id="gneE200" from="gneJ63" to="xvbxvfnd" priority="1" numLanes="1" speed="13.89"/>
    <edge id="gneE201" from="gneJ64" to="luiyukgmnfbg" priority="1" numLanes="1" speed="13.89"/>
    <edge id="gneE202" from="gneJ65" to="xvbxvfnd" priority="1" numLanes="1" speed="13.89"/>
    <edge id="gneE203" from="gneJ64" to="xxcvbxcvb" priority="1" numLanes="1" speed="13.89"/>
    <edge id="gneE204" from="gneJ67" to="gneJ145" priority="1" numLanes="1" speed="13.89"/>
    <edge id="gneE205" from="gneJ71" to="gneJ147" priority="1" numLanes="1" speed="13.89"/>
    <edge id="gneE224" from="gneJ63" to="xxcvbxcvb" priority="1" numLanes="1" speed="13.89"/>
    <edge id="gneE225" from="gneJ65" to="luiyukgmnfbg" priority="1" numLanes="1" speed="13.89"/>
    <edge id="gneE226" from="gneJ151" to="asdfadf" priority="1" numLanes="1" speed="13.89"/>
    <edge id="gneE227" from="gneJ152" to="argsbbsdg" priority="1" numLanes="1" speed="13.89"/>
    <edge id="gneE228" from="gneJ153" to="sfsgnsns" priority="1" numLanes="1" speed="13.89"/>
    <edge id="gneE229" from="gneJ152" to="sfsgnsns" priority="1" numLanes="1" speed="13.89"/>
    <edge id="gneE230" from="gneJ152" to="asdfadf" priority="1" numLanes="1" speed="13.89"/>
    <edge id="gneE232" from="gneJ151" to="argsbbsdg" priority="1" numLanes="1" speed="13.89"/>
    <edge id="gneE234" from="gneJ153" to="argsbbsdg" priority="1" numLanes="1" speed="13.89"/>
    <edge id="gneE238" from="gneJ154" to="gneJ151" priority="1" numLanes="1" speed="13.89"/>
    <edge id="gneE239" from="gneJ155" to="gneJ152" priority="1" numLanes="1" speed="13.89"/>
    <edge id="gneE240" from="gneJ156" to="gneJ153" priority="1" numLanes="1" speed="13.89"/>
    <edge id="gneE248" from="gneJ165" to="gneJ154" priority="1" numLanes="1" speed="13.89"/>
    <edge id="gneE254" from="gneJ171" to="gneJ155" priority="1" numLanes="1" speed="13.89"/>
    <edge id="gneE261" from="gneJ175" to="gneJ156" priority="1" numLanes="1" speed="13.89"/>
    <edge id="gneE270" from="gneJ183" to="xbvvbxxxxxx" priority="1" numLanes="1" speed="13.89"/>
    <edge id="gneE271" from="gneJ183" to="fgsdbxcvb" priority="1" numLanes="1" speed="13.89"/>
    <edge id="gneE273" from="gneJ184" to="xbvvbxxxxxx" priority="1" numLanes="1" speed="13.89"/>
    <edge id="gneE274" from="gneJ184" to="fgsdbxcvb" priority="1" numLanes="1" speed="13.89"/>
    <edge id="gneE275" from="gneJ184" to="xvbxvcbxbvxvcb" priority="1" numLanes="1" speed="13.89"/>
    <edge id="gneE277" from="gneJ185" to="fgsdbxcvb" priority="1" numLanes="1" speed="13.89"/>
    <edge id="gneE278" from="gneJ185" to="xvbxvcbxbvxvcb" priority="1" numLanes="1" speed="13.89"/>
    <edge id="gneE279" from="gneJ186" to="gneJ183" priority="1" numLanes="1" speed="13.89"/>
    <edge id="gneE280" from="gneJ187" to="gneJ184" priority="1" numLanes="1" speed="13.89"/>
    <edge id="gneE282" from="gneJ189" to="gneJ186" priority="1" numLanes="1" speed="13.89"/>
    <edge id="gneE283" from="gneJ189" to="gneJ187" priority="1" numLanes="1" speed="13.89"/>
    <edge id="gneE285" from="gneJ190" to="gneJ186" priority="1" numLanes="1" speed="13.89"/>
    <edge id="gneE286" from="gneJ190" to="gneJ187" priority="1" numLanes="1" speed="13.89"/>
    <edge id="gneE289" from="gneJ191" to="gneJ187" priority="1" numLanes="1" speed="13.89"/>
    <edge id="gneE292" from="dghdhd" to="gneJ194" priority="1" numLanes="1" speed="13.89"/>
    <edge id="gneE293" from=",j,hmnxgx" to="gneJ195" priority="1" numLanes="1" speed="13.89"/>
    <edge id="gneE294" from="asdfafnsn" to="gneJ196" priority="1" numLanes="1" speed="13.89"/>
    <edge id="gneE295" from="gneJ194" to="gneJ197" priority="1" numLanes="1" speed="13.89"/>
    <edge id="gneE296" from="gneJ195" to="gneJ198" priority="1" numLanes="1" speed="13.89"/>
    <edge id="gneE297" from="gneJ196" to="gneJ199" priority="1" numLanes="1" speed="13.89"/>
    <edge id="gneE298" from="gneJ199" to="gneJ200" priority="1" numLanes="1" speed="13.89"/>
    <edge id="gneE299" from="gneJ198" to="gneJ201" priority="1" numLanes="1" speed="13.89"/>
    <edge id="gneE300" from="gneJ197" to="gneJ202" priority="1" numLanes="1" speed="13.89"/>
    <edge id="gneE301" from="gneJ202" to="gneJ203" priority="1" numLanes="1" speed="13.89"/>
    <edge id="gneE302" from="gneJ201" to="gneJ204" priority="1" numLanes="1" speed="13.89"/>
    <edge id="gneE303" from="gneJ200" to="gneJ205" priority="1" numLanes="1" speed="13.89"/>
    <edge id="gneE304" from="gneJ165" to="gneJ155" priority="1" numLanes="1" speed="13.89"/>
    <edge id="gneE305" from="gneJ171" to="gneJ154" priority="1" numLanes="1" speed="13.89"/>
    <edge id="gneE306" from="gneJ175" to="gneJ155" priority="1" numLanes="1" speed="13.89"/>
    <edge id="gneE307" from="gneJ171" to="gneJ156" priority="1" numLanes="1" speed="13.89"/>
    <edge id="gneE308" from="gneJ194" to="gneJ198" priority="1" numLanes="1" speed="13.89"/>
    <edge id="gneE309" from="gneJ195" to="gneJ197" priority="1" numLanes="1" speed="13.89"/>
    <edge id="gneE310" from="gneJ196" to="gneJ198" priority="1" numLanes="1" speed="13.89"/>
    <edge id="gneE311" from="gneJ195" to="gneJ199" priority="1" numLanes="1" speed="13.89"/>
    <edge id="gneE315" from="gneJ202" to="gneJ204" priority="1" numLanes="1" speed="13.89"/>
    <edge id="gneE316" from="gneJ201" to="gneJ203" priority="1" numLanes="1" speed="13.89"/>
    <edge id="gneE317" from="gneJ201" to="gneJ205" priority="1" numLanes="1" speed="13.89"/>
    <edge id="gneE318" from="gneJ200" to="gneJ204" priority="1" numLanes="1" speed="13.89"/>
    <edge id="gneE320" from="gneJ191" to="gneJ211" priority="1" numLanes="1" speed="13.89"/>
    <edge id="gneE321" from="gneJ211" to="gneJ185" priority="1" numLanes="1" speed="13.89"/>
    <edge id="gneE322" from="gneJ190" to="gneJ211" priority="1" numLanes="1" speed="13.89"/>
    <edge id="gneE323" from="xxcvbxcvb" to="gneJ212" priority="1" numLanes="1" speed="13.89"/>
    <edge id="gneE324" from="xvbxvfnd" to="gneJ213" priority="1" numLanes="1" speed="13.89"/>
    <edge id="gneE325" from="luiyukgmnfbg" to="gneJ214" priority="1" numLanes="1" speed="13.89"/>
    <edge id="gneE326" from="gneJ214" to="gneJ215" priority="1" numLanes="1" speed="13.89"/>
    <edge id="gneE327" from="gneJ215" to="gneJ216" priority="1" numLanes="1" speed="13.89"/>
    <edge id="gneE328" from="gneJ216" to="gneJ217" priority="1" numLanes="1" speed="13.89"/>
    <edge id="gneE329" from="gneJ213" to="gneJ218" priority="1" numLanes="1" speed="13.89"/>
    <edge id="gneE330" from="gneJ218" to="gneJ219" priority="1" numLanes="1" speed="13.89"/>
    <edge id="gneE331" from="gneJ219" to="gneJ220" priority="1" numLanes="1" speed="13.89"/>
    <edge id="gneE332" from="gneJ212" to="gneJ221" priority="1" numLanes="1" speed="13.89"/>
    <edge id="gneE333" from="gneJ221" to="gneJ222" priority="1" numLanes="1" speed="13.89"/>
    <edge id="gneE334" from="gneJ222" to="gneJ223" priority="1" numLanes="1" speed="13.89"/>
    <edge id="gneE335" from="gneJ214" to="gneJ218" priority="1" numLanes="1" speed="13.89"/>
    <edge id="gneE336" from="gneJ213" to="gneJ215" priority="1" numLanes="1" speed="13.89"/>
    <edge id="gneE337" from="gneJ212" to="gneJ218" priority="1" numLanes="1" speed="13.89"/>
    <edge id="gneE338" from="gneJ213" to="gneJ221" priority="1" numLanes="1" speed="13.89"/>
    <edge id="gneE339" from="gneJ216" to="gneJ220" priority="1" numLanes="1" speed="13.89"/>
    <edge id="gneE340" from="gneJ222" to="gneJ220" priority="1" numLanes="1" speed="13.89"/>
    <edge id="gneE341" from="gneJ219" to="gneJ223" priority="1" numLanes="1" speed="13.89"/>
    <edge id="gneE342" from="gneJ219" to="gneJ217" priority="1" numLanes="1" speed="13.89"/>
    <edge id="gneE344" from="gneJ223" to="south-out1" priority="1" numLanes="1" speed="13.89"/>
    <edge id="gneE345" from="gneJ220" to="south-out2" priority="1" numLanes="1" speed="13.89"/>
    <edge id="gneE346" from="gneJ217" to="south-out3" priority="1" numLanes="1" speed="13.89"/>
    <edge id="gneE347" from="south1" to="gneJ189" priority="1" numLanes="1" speed="13.89"/>
    <edge id="gneE348" from="south2" to="gneJ190" priority="1" numLanes="1" speed="13.89"/>
    <edge id="gneE349" from="south3" to="gneJ191" priority="1" numLanes="1" speed="13.89"/>
    <edge id="gneE350" from="gneJ203" to="gneJ231" priority="1" numLanes="1" speed="13.89"/>
    <edge id="gneE351" from="gneJ204" to="gneJ232" priority="1" numLanes="1" speed="13.89"/>
    <edge id="gneE352" from="gneJ205" to="gneJ233" priority="1" numLanes="1" speed="13.89"/>
    <edge id="gneE353" from="gneJ234" to="gneJ165" priority="1" numLanes="1" speed="13.89"/>
    <edge id="gneE354" from="gneJ235" to="gneJ171" priority="1" numLanes="1" speed="13.89"/>
    <edge id="gneE355" from="gneJ236" to="gneJ175" priority="1" numLanes="1" speed="13.89"/>
    <edge id="gneE356" from="gneJ237" to="dsghsdgsdfg" priority="1" numLanes="1" speed="13.89"/>
    <edge id="gneE357" from="gneJ238" to="gneJ237" priority="1" numLanes="1" speed="13.89"/>
    <edge id="gneE358" from="gneJ239" to="gneJ238" priority="1" numLanes="1" speed="13.89"/>
    <edge id="gneE359" from="gneJ240" to="gneJ239" priority="1" numLanes="1" speed="13.89"/>
    <edge id="gneE360" from="gneJ241" to="gneJ242" priority="1" numLanes="1" speed="13.89"/>
    <edge id="gneE361" from="gneJ242" to="gneJ243" priority="1" numLanes="1" speed="13.89"/>
    <edge id="gneE362" from="gneJ243" to="gneJ244" priority="1" numLanes="1" speed="13.89"/>
    <edge id="gneE363" from="gneJ244" to="bngsfgnng" priority="1" numLanes="1" speed="13.89"/>
    <edge id="gneE364" from="gneJ245" to="gneJ246" priority="1" numLanes="1" speed="13.89"/>
    <edge id="gneE365" from="gneJ246" to="gneJ247" priority="1" numLanes="1" speed="13.89"/>
    <edge id="gneE366" from="gneJ247" to="gneJ248" priority="1" numLanes="1" speed="13.89"/>
    <edge id="gneE367" from="gneJ248" to="sgfsdfgsdfg" priority="1" numLanes="1" speed="13.89"/>
    <edge id="gneE368" from="gneJ239" to="gneJ243" priority="1" numLanes="1" speed="13.89"/>
    <edge id="gneE369" from="gneJ242" to="gneJ238" priority="1" numLanes="1" speed="13.89"/>
    <edge id="gneE370" from="gneJ242" to="gneJ247" priority="1" numLanes="1" speed="13.89"/>
    <edge id="gneE371" from="gneJ246" to="gneJ243" priority="1" numLanes="1" speed="13.89"/>
    <edge id="gneE372" from="gneJ237" to="bngsfgnng" priority="1" numLanes="1" speed="13.89"/>
    <edge id="gneE373" from="gneJ244" to="dsghsdgsdfg" priority="1" numLanes="1" speed="13.89"/>
    <edge id="gneE374" from="gneJ244" to="sgfsdfgsdfg" priority="1" numLanes="1" speed="13.89"/>
    <edge id="gneE375" from="gneJ248" to="bngsfgnng" priority="1" numLanes="1" speed="13.89"/>
    <edge id="gneE376" from="sdfgsdfgsfg" to="gneJ249" priority="1" numLanes="1" speed="13.89"/>
    <edge id="gneE377" from="gneJ249" to="gneJ250" priority="1" numLanes="1" speed="13.89"/>
    <edge id="gneE378" from="gneJ250" to="gneJ251" priority="1" numLanes="1" speed="13.89"/>
    <edge id="gneE379" from="gneJ251" to="gneJ252" priority="1" numLanes="1" speed="13.89"/>
    <edge id="gneE380" from="gneJ252" to="gneJ253" priority="1" numLanes="1" speed="13.89"/>
    <edge id="gneE381" from="sfgsfgsfgs" to="gneJ254" priority="1" numLanes="1" speed="13.89"/>
    <edge id="gneE382" from="gneJ254" to="gneJ255" priority="1" numLanes="1" speed="13.89"/>
    <edge id="gneE383" from="gneJ255" to="gneJ256" priority="1" numLanes="1" speed="13.89"/>
    <edge id="gneE384" from="gneJ256" to="gneJ257" priority="1" numLanes="1" speed="13.89"/>
    <edge id="gneE385" from="gneJ257" to="gneJ258" priority="1" numLanes="1" speed="13.89"/>
    <edge id="gneE386" from="gdhhjhfdhgd" to="gneJ259" priority="1" numLanes="1" speed="13.89"/>
    <edge id="gneE387" from="gneJ259" to="gneJ260" priority="1" numLanes="1" speed="13.89"/>
    <edge id="gneE388" from="gneJ260" to="gneJ261" priority="1" numLanes="1" speed="13.89"/>
    <edge id="gneE389" from="gneJ261" to="gneJ262" priority="1" numLanes="1" speed="13.89"/>
    <edge id="gneE390" from="gneJ262" to="gneJ263" priority="1" numLanes="1" speed="13.89"/>
    <edge id="gneE391" from="gneJ249" to="gneJ255" priority="1" numLanes="1" speed="13.89"/>
    <edge id="gneE392" from="gneJ254" to="gneJ250" priority="1" numLanes="1" speed="13.89"/>
    <edge id="gneE393" from="gneJ259" to="gneJ255" priority="1" numLanes="1" speed="13.89"/>
    <edge id="gneE394" from="gneJ254" to="gneJ260" priority="1" numLanes="1" speed="13.89"/>
    <edge id="gneE395" from="gneJ251" to="gneJ257" priority="1" numLanes="1" speed="13.89"/>
    <edge id="gneE396" from="gneJ256" to="gneJ252" priority="1" numLanes="1" speed="13.89"/>
    <edge id="gneE397" from="gneJ261" to="gneJ257" priority="1" numLanes="1" speed="13.89"/>
    <edge id="gneE398" from="gneJ256" to="gneJ262" priority="1" numLanes="1" speed="13.89"/>
    <edge id="gneE399" from="gneJ38" to="sfgsfgsfgs" priority="1" numLanes="1" speed="13.89"/>
    <edge id="gneE400" from="gneJ40" to="sfgsfgsfgs" priority="1" numLanes="1" speed="13.89"/>
    <edge id="gneE401" from="gneJ39" to="sdfgsdfgsfg" priority="1" numLanes="1" speed="13.89"/>
    <edge id="gneE402" from="gneJ39" to="gdhhjhfdhgd" priority="1" numLanes="1" speed="13.89"/>
    <edge id="gneE403" from="gneJ58" to="gneJ103" priority="1" numLanes="1" speed="13.89"/>
    <edge id="gneE404" from="gneJ60" to="gneJ102" priority="1" numLanes="1" speed="13.89"/>
    <edge id="gneE405" from="gneJ62" to="gneJ103" priority="1" numLanes="1" speed="13.89"/>
    <edge id="gneE406" from="gneJ60" to="gneJ104" priority="1" numLanes="1" speed="13.89"/>
    <edge id="gneE408" from="lhkl" to="gneJ266" priority="1" numLanes="1" speed="13.89"/>
    <edge id="gneE409" from="gjkgjkgjkgjkgkjhk" to="gneJ267" priority="1" numLanes="1" speed="13.89"/>
    <edge id="gneE410" from="gjkgjjtytyt" to="gneJ268" priority="1" numLanes="1" speed="13.89"/>
    <edge id="gneE411" from="gneJ266" to="gneJ269" priority="1" numLanes="1" speed="13.89"/>
    <edge id="gneE412" from="gneJ269" to="gneJ270" priority="1" numLanes="1" speed="13.89"/>
    <edge id="gneE413" from="gneJ270" to="gneJ271" priority="1" numLanes="1" speed="13.89"/>
    <edge id="gneE414" from="gneJ267" to="gneJ272" priority="1" numLanes="1" speed="13.89"/>
    <edge id="gneE415" from="gneJ272" to="gneJ273" priority="1" numLanes="1" speed="13.89"/>
    <edge id="gneE416" from="gneJ273" to="gneJ274" priority="1" numLanes="1" speed="13.89"/>
    <edge id="gneE417" from="gneJ268" to="gneJ275" priority="1" numLanes="1" speed="13.89"/>
    <edge id="gneE418" from="gneJ275" to="gneJ276" priority="1" numLanes="1" speed="13.89"/>
    <edge id="gneE419" from="gneJ276" to="gneJ277" priority="1" numLanes="1" speed="13.89"/>
    <edge id="gneE420" from="gneJ278" to="gneJ279" priority="1" numLanes="1" speed="13.89"/>
    <edge id="gneE421" from="gneJ279" to="gneJ280" priority="1" numLanes="1" speed="13.89"/>
    <edge id="gneE422" from="gneJ280" to="fjhfhjfhj" priority="1" numLanes="1" speed="13.89"/>
    <edge id="gneE423" from="gneJ281" to="gneJ282" priority="1" numLanes="1" speed="13.89"/>
    <edge id="gneE424" from="gneJ282" to="gneJ283" priority="1" numLanes="1" speed="13.89"/>
    <edge id="gneE425" from="gneJ283" to="fjfghjhnnvnv" priority="1" numLanes="1" speed="13.89"/>
    <edge id="gneE426" from="gneJ284" to="gneJ285" priority="1" numLanes="1" speed="13.89"/>
    <edge id="gneE427" from="gneJ285" to="gneJ286" priority="1" numLanes="1" speed="13.89"/>
    <edge id="gneE428" from="gneJ286" to="qwerjdhjfhj" priority="1" numLanes="1" speed="13.89"/>
    <edge id="gneE429" from="gneJ268" to="gneJ272" priority="1" numLanes="1" speed="13.89"/>
    <edge id="gneE430" from="gneJ267" to="gneJ275" priority="1" numLanes="1" speed="13.89"/>
    <edge id="gneE431" from="gneJ266" to="gneJ272" priority="1" numLanes="1" speed="13.89"/>
    <edge id="gneE432" from="gneJ267" to="gneJ269" priority="1" numLanes="1" speed="13.89"/>
    <edge id="gneE433" from="gneJ286" to="fjfghjhnnvnv" priority="1" numLanes="1" speed="13.89"/>
    <edge id="gneE434" from="gneJ283" to="qwerjdhjfhj" priority="1" numLanes="1" speed="13.89"/>
    <edge id="gneE435" from="gneJ280" to="fjfghjhnnvnv" priority="1" numLanes="1" speed="13.89"/>
    <edge id="gneE436" from="gneJ283" to="fjhfhjfhj" priority="1" numLanes="1" speed="13.89"/>
    <edge id="gneE437" from="gneJ276" to="gneJ274" priority="1" numLanes="1" speed="13.89"/>
    <edge id="gneE438" from="gneJ273" to="gneJ277" priority="1" numLanes="1" speed="13.89"/>
    <edge id="gneE439" from="gneJ270" to="gneJ274" priority="1" numLanes="1" speed="13.89"/>
    <edge id="gneE440" from="gneJ273" to="gneJ271" priority="1" numLanes="1" speed="13.89"/>
    <edge id="gneE441" from="gneJ278" to="gneJ282" priority="1" numLanes="1" speed="13.89"/>
    <edge id="gneE443" from="gneJ281" to="gneJ279" priority="1" numLanes="1" speed="13.89"/>
    <edge id="gneE444" from="gneJ284" to="gneJ282" priority="1" numLanes="1" speed="13.89"/>
    <edge id="gneE445" from="gneJ281" to="gneJ285" priority="1" numLanes="1" speed="13.89"/>
    <edge id="gneE446" from="gneJ271" to="gneJ289" priority="1" numLanes="1" speed="13.89"/>
    <edge id="gneE447" from="gneJ274" to="gneJ290" priority="1" numLanes="1" speed="13.89"/>
    <edge id="gneE448" from="gneJ277" to="gneJ291" priority="1" numLanes="1" speed="13.89"/>
    <edge id="gneE449" from="gneJ292" to="gneJ278" priority="1" numLanes="1" speed="13.89"/>
    <edge id="gneE450" from="gneJ293" to="gneJ281" priority="1" numLanes="1" speed="13.89"/>
    <edge id="gneE451" from="gneJ294" to="gneJ284" priority="1" numLanes="1" speed="13.89"/>
    <edge id="gneE453" from="gneJ18" to="gneJ19" priority="1" numLanes="1" speed="13.89"/>
    <edge id="gneE454" from="gneJ16" to="gneJ17" priority="1" numLanes="1" speed="13.89"/>
    <edge id="gneE455" from="gneJ14" to="gneJ15" priority="1" numLanes="1" speed="13.89"/>
    <edge id="gneE456" from="gneJ20" to="gneJ297" priority="1" numLanes="1" speed="13.89"/>
    <edge id="gneE457" from="gneJ22" to="gneJ23" priority="1" numLanes="1" speed="13.89"/>
    <edge id="gneE458" from="gneJ24" to="gneJ25" priority="1" numLanes="1" speed="13.89"/>
    <edge id="gneE459" from="gneJ6" to="gneJ298" priority="1" numLanes="1" speed="13.89"/>
    <edge id="gneE460" from="gneJ4" to="gneJ299" priority="1" numLanes="1" speed="13.89"/>
    <edge id="gneE461" from="gneJ2" to="gneJ300" priority="1" numLanes="1" speed="13.89"/>
    <edge id="gneE462" from="gneJ301" to="gneJ9" priority="1" numLanes="1" speed="13.89"/>
    <edge id="gneE463" from="gneJ302" to="gneJ11" priority="1" numLanes="1" speed="13.89"/>
    <edge id="gneE464" from="gneJ303" to="gneJ13" priority="1" numLanes="1" speed="13.89"/>
    <edge id="gneE465" from="gneJ304" to="gneJ7" priority="1" numLanes="1" speed="13.89"/>
    <edge id="gneE466" from="gneJ305" to="gneJ5" priority="1" numLanes="1" speed="13.89"/>
    <edge id="gneE467" from="gneJ306" to="gneJ3" priority="1" numLanes="1" speed="13.89"/>
    <edge id="gneE468" from="gneJ8" to="gneJ307" priority="1" numLanes="1" speed="13.89"/>
    <edge id="gneE469" from="gneJ10" to="gneJ308" priority="1" numLanes="1" speed="13.89"/>
    <edge id="gneE470" from="gneJ12" to="gneJ309" priority="1" numLanes="1" speed="13.89"/>
    <edge id="gneE472" from="gneJ24" to="gneJ311" priority="1" numLanes="1" speed="13.89"/>
    <edge id="gneE473" from="gneJ312" to="gneJ25" priority="1" numLanes="1" speed="13.89"/>
    <edge id="gneE474" from="gneJ14" to="gneJ313" priority="1" numLanes="1" speed="13.89"/>
    <edge id="gneE475" from="gneJ314" to="gneJ15" priority="1" numLanes="1" speed="13.89"/>
    <edge id="gneE476" from="gneJ311" to="gneJ304" priority="1" numLanes="1" speed="13.89"/>
    <edge id="gneE477" from="gneJ304" to="gneJ305" priority="1" numLanes="1" speed="13.89"/>
    <edge id="gneE478" from="gneJ305" to="gneJ306" priority="1" numLanes="1" speed="13.89"/>
    <edge id="gneE479" from="gneJ306" to="gneJ307" priority="1" numLanes="1" speed="13.89"/>
    <edge id="gneE480" from="gneJ307" to="gneJ308" priority="1" numLanes="1" speed="13.89"/>
    <edge id="gneE481" from="gneJ308" to="gneJ309" priority="1" numLanes="1" speed="13.89"/>
    <edge id="gneE482" from="gneJ309" to="gneJ312" priority="1" numLanes="1" speed="13.89"/>
    <edge id="gneE483" from="gneJ313" to="gneJ303" priority="1" numLanes="1" speed="13.89"/>
    <edge id="gneE484" from="gneJ303" to="gneJ302" priority="1" numLanes="1" speed="13.89"/>
    <edge id="gneE485" from="gneJ302" to="gneJ301" priority="1" numLanes="1" speed="13.89"/>
    <edge id="gneE486" from="gneJ301" to="gneJ300" priority="1" numLanes="1" speed="13.89"/>
    <edge id="gneE487" from="gneJ300" to="gneJ299" priority="1" numLanes="1" speed="13.89"/>
    <edge id="gneE488" from="gneJ299" to="gneJ298" priority="1" numLanes="1" speed="13.89"/>
    <edge id="gneE489" from="gneJ298" to="gneJ314" priority="1" numLanes="1" speed="13.89"/>
    <edge id="gneE490" from="gneJ12" to="gneJ25" priority="1" numLanes="1" speed="13.89"/>
    <edge id="gneE491" from="gneJ24" to="gneJ7" priority="1" numLanes="1" speed="13.89"/>
    <edge id="gneE492" from="gneJ14" to="gneJ13" priority="1" numLanes="1" speed="13.89"/>
    <edge id="gneE493" from="gneJ6" to="gneJ15" priority="1" numLanes="1" speed="13.89"/>