<?xml version="1.0" encoding="UTF-8"?>

<!-- generated on 6/26/2018 10:26:48 AM by Netedit Version 0.32.0
<?xml version="1.0" encoding="UTF-8"?>

<configuration xmlns:xsi="http://www.w3.org/2001/XMLSchema-instance" xsi:noNamespaceSchemaLocation="http://sumo.dlr.de/xsd/netconvertConfiguration.xsd">

    <input>
        <sumo-net-file value="C:\Users\abeld\Documents\School\Year%202\Project%202-2\Project_2.2\desktop\assets\Intersection\SinglePoint\SinglePoint.net.xml"/>
    </input>

    <output>
        <output-file value="C:\Users\abeld\Documents\School\Year%202\Project%202-2\Project_2.2\desktop\assets\Intersection\SinglePoint\SinglePoint.net.xml"/>
    </output>

    <processing>
        <no-turnarounds value="true"/>
        <offset.disable-normalization value="true"/>
        <lefthand value="false"/>
        <junctions.corner-detail value="0"/>
        <rectangular-lane-cut value="false"/>
        <walkingareas value="false"/>
    </processing>

</configuration>
-->

<net version="0.27" xmlns:xsi="http://www.w3.org/2001/XMLSchema-instance" xsi:noNamespaceSchemaLocation="http://sumo.dlr.de/xsd/net_file.xsd">

    <location netOffset="0.00,0.00" convBoundary="-840.00,-640.00,940.00,780.00" origBoundary="-10000000000.00,-10000000000.00,10000000000.00,10000000000.00" projParameter="!"/>

    <edge id=":gneJ10_0" function="internal">
        <lane id=":gneJ10_0_0" index="0" speed="13.89" length="0.10" shape="38.35,250.00 38.35,250.00"/>
    </edge>
    <edge id=":gneJ102_0" function="internal">
        <lane id=":gneJ102_0_0" index="0" speed="13.89" length="25.62" shape="843.66,85.05 838.30,84.22 830.98,83.08 823.65,82.08 818.27,81.65"/>
    </edge>
    <edge id=":gneJ102_1" function="internal">
        <lane id=":gneJ102_1_0" index="0" speed="13.89" length="25.63" shape="843.90,81.65 818.27,81.65"/>
    </edge>
    <edge id=":gneJ103_0" function="internal">
        <lane id=":gneJ103_0_0" index="0" speed="13.89" length="25.62" shape="843.66,95.05 838.30,94.22 830.98,93.08 823.65,92.08 818.27,91.65"/>
    </edge>
    <edge id=":gneJ103_1" function="internal">
        <lane id=":gneJ103_1_0" index="0" speed="13.89" length="25.86" shape="844.13,91.65 818.27,91.65"/>
    </edge>
    <edge id=":gneJ103_2" function="internal">
        <lane id=":gneJ103_2_0" index="0" speed="13.89" length="25.85" shape="843.89,88.25 838.50,89.08 831.10,90.22 823.69,91.22 818.27,91.65"/>
    </edge>
    <edge id=":gneJ104_0" function="internal">
        <lane id=":gneJ104_0_0" index="0" speed="13.89" length="25.63" shape="844.13,101.65 818.50,101.65"/>
    </edge>
    <edge id=":gneJ104_1" function="internal">
        <lane id=":gneJ104_1_0" index="0" speed="13.89" length="25.62" shape="843.89,98.25 838.54,99.08 831.22,100.22 823.88,101.22 818.50,101.65"/>
    </edge>
    <edge id=":gneJ11_0" function="internal">
        <lane id=":gneJ11_0_0" index="0" speed="13.89" length="0.10" shape="38.35,-100.00 38.35,-100.00"/>
    </edge>
    <edge id=":gneJ12_0" function="internal">
        <lane id=":gneJ12_0_0" index="0" speed="13.89" length="0.10" shape="28.35,250.00 28.35,250.00"/>
    </edge>
    <edge id=":gneJ14_0" function="internal">
        <lane id=":gneJ14_0_0" index="0" speed="13.89" length="10.19" shape="-162.27,48.35 -159.34,48.09 -157.43,47.34 -155.62,46.17 -152.99,44.65"/>
    </edge>
    <edge id=":gneJ14_1" function="internal">
        <lane id=":gneJ14_1_0" index="0" speed="13.89" length="10.16" shape="-162.27,48.35 -152.11,48.35"/>
    </edge>
    <edge id=":gneJ16_0" function="internal">
        <lane id=":gneJ16_0_0" index="0" speed="13.89" length="0.10" shape="-160.00,58.35 -160.00,58.35"/>
    </edge>
    <edge id=":gneJ165_0" function="internal">
        <lane id=":gneJ165_0_0" index="0" speed="13.89" length="0.10" shape="28.35,-100.00 28.35,-100.00"/>
    </edge>
    <edge id=":gneJ17_0" function="internal">
        <lane id=":gneJ17_0_0" index="0" speed="13.89" length="0.10" shape="270.00,58.35 270.00,58.35"/>
    </edge>
    <edge id=":gneJ18_0" function="internal">
        <lane id=":gneJ18_0_0" index="0" speed="13.89" length="0.10" shape="-160.00,68.35 -160.00,68.35"/>
    </edge>
    <edge id=":gneJ19_0" function="internal">
        <lane id=":gneJ19_0_0" index="0" speed="13.89" length="0.10" shape="270.00,68.35 270.00,68.35"/>
    </edge>
    <edge id=":gneJ2_0" function="internal">
        <lane id=":gneJ2_0_0" index="0" speed="13.89" length="0.10" shape="61.65,-100.00 61.65,-100.00"/>
    </edge>
    <edge id=":gneJ20_0" function="internal">
        <lane id=":gneJ20_0_0" index="0" speed="13.89" length="0.10" shape="270.00,81.65 270.00,81.65"/>
    </edge>
    <edge id=":gneJ207_0" function="internal">
        <lane id=":gneJ207_0_0" index="0" speed="13.89" length="0.10" shape="61.65,250.00 61.65,250.00"/>
    </edge>
    <edge id=":gneJ208_0" function="internal">
        <lane id=":gneJ208_0_0" index="0" speed="13.89" length="0.10" shape="48.35,-100.00 48.35,-100.00"/>
    </edge>
    <edge id=":gneJ21_0" function="internal">
        <lane id=":gneJ21_0_0" index="0" speed="13.89" length="0.10" shape="-160.00,81.65 -160.00,81.65"/>
    </edge>
    <edge id=":gneJ22_0" function="internal">
        <lane id=":gneJ22_0_0" index="0" speed="13.89" length="0.10" shape="270.00,91.65 270.00,91.65"/>
    </edge>
    <edge id=":gneJ24_0" function="internal">
        <lane id=":gneJ24_0_0" index="0" speed="13.89" length="10.19" shape="272.27,101.65 269.34,101.91 267.43,102.66 265.62,103.83 262.99,105.35"/>
    </edge>
    <edge id=":gneJ24_1" function="internal">
        <lane id=":gneJ24_1_0" index="0" speed="13.89" length="10.16" shape="272.27,101.65 262.11,101.65"/>
    </edge>
    <edge id=":gneJ25_0" function="internal">
        <lane id=":gneJ25_0_0" index="0" speed="13.89" length="10.19" shape="-152.99,105.35 -155.62,103.83 -157.43,102.66 -159.34,101.91 -162.27,101.65"/>
    </edge>
    <edge id=":gneJ25_1" function="internal">
        <lane id=":gneJ25_1_0" index="0" speed="13.89" length="10.16" shape="-152.11,101.65 -162.27,101.65"/>
    </edge>
    <edge id=":gneJ266_0" function="internal">
        <lane id=":gneJ266_0_0" index="0" speed="13.89" length="0.18" shape="81.65,-70.18 81.65,-70.13 81.65,-70.09 81.65,-70.06 81.66,-70.00"/>
    </edge>
    <edge id=":gneJ268_0" function="internal">
        <lane id=":gneJ268_0_0" index="0" speed="13.89" length="0.10" shape="61.65,-70.00 61.65,-70.00"/>
    </edge>
    <edge id=":gneJ269_0" function="internal">
        <lane id=":gneJ269_0_0" index="0" speed="13.89" length="0.10" shape="71.65,-70.00 71.65,-70.00"/>
    </edge>
    <edge id=":gneJ272_0" function="internal">
        <lane id=":gneJ272_0_0" index="0" speed="13.89" length="0.10" shape="48.35,-70.00 48.35,-70.00"/>
    </edge>
    <edge id=":gneJ273_0" function="internal">
        <lane id=":gneJ273_0_0" index="0" speed="13.89" length="0.10" shape="38.35,-70.00 38.35,-70.00"/>
    </edge>
    <edge id=":gneJ274_0" function="internal">
        <lane id=":gneJ274_0_0" index="0" speed="13.89" length="0.18" shape="28.34,-70.00 28.35,-70.06 28.35,-70.09 28.35,-70.13 28.35,-70.18"/>
    </edge>
    <edge id=":gneJ278_0" function="internal">
        <lane id=":gneJ278_0_0" index="0" speed="13.89" length="0.10" shape="71.65,220.00 71.65,220.00"/>
    </edge>
    <edge id=":gneJ279_0" function="internal">
        <lane id=":gneJ279_0_0" index="0" speed="13.89" length="0.10" shape="61.65,220.00 61.65,220.00"/>
    </edge>
    <edge id=":gneJ280_0" function="internal">
        <lane id=":gneJ280_0_0" index="0" speed="13.89" length="0.10" shape="48.35,220.00 48.35,220.00"/>
    </edge>
    <edge id=":gneJ281_0" function="internal">
        <lane id=":gneJ281_0_0" index="0" speed="13.89" length="0.10" shape="38.35,220.00 38.35,220.00"/>
    </edge>
    <edge id=":gneJ282_0" function="internal">
        <lane id=":gneJ282_0_0" index="0" speed="13.89" length="0.18" shape="28.35,220.18 28.35,220.13 28.35,220.09 28.35,220.06 28.34,220.00"/>
    </edge>
    <edge id=":gneJ284_0" function="internal">
        <lane id=":gneJ284_0_0" index="0" speed="13.89" length="0.18" shape="81.66,220.00 81.65,220.06 81.65,220.09 81.65,220.13 81.65,220.18"/>
    </edge>
    <edge id=":gneJ285_0" function="internal">
        <lane id=":gneJ285_0_0" index="0" speed="13.89" length="0.75" shape="-120.73,28.52 -120.53,28.42 -120.38,28.37 -120.23,28.35 -120.01,28.35"/>
    </edge>
    <edge id=":gneJ286_0" function="internal">
        <lane id=":gneJ286_0_0" index="0" speed="13.89" length="0.75" shape="-120.01,121.65 -120.23,121.65 -120.38,121.63 -120.53,121.58 -120.73,121.48"/>
    </edge>
    <edge id=":gneJ287_0" function="internal">
        <lane id=":gneJ287_0_0" index="0" speed="13.89" length="0.75" shape="230.73,121.48 230.53,121.58 230.38,121.63 230.23,121.65 230.01,121.65"/>
    </edge>
    <edge id=":gneJ288_0" function="internal">
        <lane id=":gneJ288_0_0" index="0" speed="13.89" length="0.75" shape="230.01,28.35 230.23,28.35 230.38,28.37 230.53,28.42 230.73,28.52"/>
    </edge>
    <edge id=":gneJ289_0" function="internal">
        <lane id=":gneJ289_0_0" index="0" speed="13.89" length="0.75" shape="270.05,48.18 270.25,48.28 270.39,48.33 270.55,48.35 270.77,48.35"/>
    </edge>
    <edge id=":gneJ290_0" function="internal">
        <lane id=":gneJ290_0_0" index="0" speed="13.89" length="6.41" shape="122.03,121.65 120.14,121.74 118.88,122.01 117.64,122.47 115.85,123.12"/>
    </edge>
    <edge id=":gneJ290_1" function="internal">
        <lane id=":gneJ290_1_0" index="0" speed="13.89" length="5.81" shape="122.03,121.65 120.66,121.48 119.38,120.98 118.20,120.14 117.10,118.97"/>
    </edge>
    <edge id=":gneJ291_0" function="internal">
        <lane id=":gneJ291_0_0" index="0" speed="13.89" length="6.41" shape="115.85,26.88 117.64,27.53 118.88,27.99 120.14,28.26 122.03,28.35"/>
    </edge>
    <edge id=":gneJ291_1" function="internal">
        <lane id=":gneJ291_1_0" index="0" speed="13.89" length="2.11" shape="117.10,31.03 118.20,29.86 118.61,29.57"/>
    </edge>
    <edge id=":gneJ291_2" function="internal">
        <lane id=":gneJ291_2_0" index="0" speed="13.89" length="3.70" shape="118.61,29.57 119.38,29.02 120.66,28.52 122.03,28.35"/>
    </edge>
    <edge id=":gneJ292_0" function="internal">
        <lane id=":gneJ292_0_0" index="0" speed="13.89" length="6.41" shape="-5.85,123.12 -7.64,122.47 -8.88,122.01 -10.14,121.74 -12.03,121.65"/>
    </edge>
    <edge id=":gneJ292_1" function="internal">
        <lane id=":gneJ292_1_0" index="0" speed="13.89" length="2.11" shape="-7.10,118.97 -8.20,120.14 -8.61,120.43"/>
    </edge>
    <edge id=":gneJ292_2" function="internal">
        <lane id=":gneJ292_2_0" index="0" speed="13.89" length="3.70" shape="-8.61,120.43 -9.38,120.98 -10.66,121.48 -12.03,121.65"/>
    </edge>
    <edge id=":gneJ293_0" function="internal">
        <lane id=":gneJ293_0_0" index="0" speed="13.89" length="6.41" shape="-12.03,28.35 -10.14,28.26 -8.88,27.99 -7.64,27.53 -5.85,26.88"/>
    </edge>
    <edge id=":gneJ293_1" function="internal">
        <lane id=":gneJ293_1_0" index="0" speed="13.89" length="5.81" shape="-12.03,28.35 -10.66,28.52 -9.38,29.02 -8.20,29.86 -7.10,31.03"/>
    </edge>
    <edge id=":gneJ294_0" function="internal">
        <lane id=":gneJ294_0_0" index="0" speed="13.89" length="1.83" shape="17.51,19.09 17.94,18.89 18.26,18.60 18.48,18.22 18.59,17.75"/>
    </edge>
    <edge id=":gneJ295_0" function="internal">
        <lane id=":gneJ295_0_0" index="0" speed="13.89" length="1.83" shape="91.41,17.75 91.52,18.22 91.74,18.60 92.06,18.89 92.49,19.09"/>
    </edge>
    <edge id=":gneJ296_0" function="internal">
        <lane id=":gneJ296_0_0" index="0" speed="13.89" length="1.83" shape="92.49,130.91 92.06,131.11 91.74,131.40 91.52,131.78 91.41,132.25"/>
    </edge>
    <edge id=":gneJ297_0" function="internal">
        <lane id=":gneJ297_0_0" index="0" speed="13.89" length="1.83" shape="18.59,132.25 18.48,131.78 18.26,131.40 17.94,131.11 17.51,130.91"/>
    </edge>
    <edge id=":gneJ298_0" function="internal">
        <lane id=":gneJ298_0_0" index="0" speed="13.89" length="1.07" shape="48.35,119.98 48.36,119.67 48.40,119.45 48.50,119.25 48.69,119.00"/>
    </edge>
    <edge id=":gneJ299_0" function="internal">
        <lane id=":gneJ299_0_0" index="0" speed="13.89" length="1.07" shape="61.65,30.02 61.64,30.33 61.60,30.55 61.50,30.75 61.31,31.00"/>
    </edge>
    <edge id=":gneJ300_0" function="internal">
        <lane id=":gneJ300_0_0" index="0" speed="13.89" length="1.07" shape="61.31,119.00 61.50,119.25 61.60,119.45 61.64,119.67 61.65,119.98"/>
    </edge>
    <edge id=":gneJ301_0" function="internal">
        <lane id=":gneJ301_0_0" index="0" speed="13.89" length="1.07" shape="48.69,31.00 48.50,30.75 48.40,30.55 48.36,30.33 48.35,30.02"/>
    </edge>
    <edge id=":gneJ302_0" function="internal">
        <lane id=":gneJ302_0_0" index="0" speed="13.89" length="25.63" shape="741.50,101.65 715.87,101.65"/>
    </edge>
    <edge id=":gneJ302_1" function="internal">
        <lane id=":gneJ302_1_0" index="0" speed="13.89" length="25.62" shape="741.50,101.65 736.12,101.22 728.78,100.22 721.46,99.08 716.11,98.25"/>
    </edge>
    <edge id=":gneJ303_0" function="internal">
        <lane id=":gneJ303_0_0" index="0" speed="13.89" length="25.63" shape="694.13,101.65 668.50,101.65"/>
    </edge>
    <edge id=":gneJ303_1" function="internal">
        <lane id=":gneJ303_1_0" index="0" speed="13.89" length="25.62" shape="693.89,98.25 688.54,99.08 681.22,100.22 673.88,101.22 668.50,101.65"/>
    </edge>
    <edge id=":gneJ304_0" function="internal">
        <lane id=":gneJ304_0_0" index="0" speed="13.89" length="25.63" shape="591.50,101.65 565.87,101.65"/>
    </edge>
    <edge id=":gneJ304_1" function="internal">
        <lane id=":gneJ304_1_0" index="0" speed="13.89" length="25.62" shape="591.50,101.65 586.12,101.22 578.78,100.22 571.46,99.08 566.11,98.25"/>
    </edge>
    <edge id=":gneJ305_0" function="internal">
        <lane id=":gneJ305_0_0" index="0" speed="13.89" length="25.63" shape="544.13,101.65 518.50,101.65"/>
    </edge>
    <edge id=":gneJ305_1" function="internal">
        <lane id=":gneJ305_1_0" index="0" speed="13.89" length="25.62" shape="543.89,98.25 538.54,99.08 531.22,100.22 523.88,101.22 518.50,101.65"/>
    </edge>
    <edge id=":gneJ306_0" function="internal">
        <lane id=":gneJ306_0_0" index="0" speed="13.89" length="25.39" shape="741.50,91.65 736.15,92.08 728.90,93.08 721.66,94.22 716.34,95.05"/>
    </edge>
    <edge id=":gneJ306_1" function="internal">
        <lane id=":gneJ306_1_0" index="0" speed="13.89" length="25.63" shape="741.50,91.65 715.87,91.65"/>
    </edge>
    <edge id=":gneJ306_2" function="internal">
        <lane id=":gneJ306_2_0" index="0" speed="13.89" length="25.62" shape="741.50,91.65 736.12,91.22 728.78,90.22 721.46,89.08 716.11,88.25"/>
    </edge>
    <edge id=":gneJ307_0" function="internal">
        <lane id=":gneJ307_0_0" index="0" speed="13.89" length="25.62" shape="693.66,95.05 688.30,94.22 680.98,93.08 673.65,92.08 668.27,91.65"/>
    </edge>
    <edge id=":gneJ307_1" function="internal">
        <lane id=":gneJ307_1_0" index="0" speed="13.89" length="25.86" shape="694.13,91.65 668.27,91.65"/>
    </edge>
    <edge id=":gneJ307_2" function="internal">
        <lane id=":gneJ307_2_0" index="0" speed="13.89" length="25.85" shape="693.89,88.25 688.50,89.08 681.10,90.22 673.69,91.22 668.27,91.65"/>
    </edge>
    <edge id=":gneJ308_0" function="internal">
        <lane id=":gneJ308_0_0" index="0" speed="13.89" length="25.39" shape="591.50,91.65 586.15,92.08 578.90,93.08 571.66,94.22 566.34,95.05"/>
    </edge>
    <edge id=":gneJ308_1" function="internal">
        <lane id=":gneJ308_1_0" index="0" speed="13.89" length="25.63" shape="591.50,91.65 565.87,91.65"/>
    </edge>
    <edge id=":gneJ308_2" function="internal">
        <lane id=":gneJ308_2_0" index="0" speed="13.89" length="25.62" shape="591.50,91.65 586.12,91.22 578.78,90.22 571.46,89.08 566.11,88.25"/>
    </edge>
    <edge id=":gneJ309_0" function="internal">
        <lane id=":gneJ309_0_0" index="0" speed="13.89" length="25.62" shape="543.66,95.05 538.30,94.22 530.98,93.08 523.65,92.08 518.27,91.65"/>
    </edge>
    <edge id=":gneJ309_1" function="internal">
        <lane id=":gneJ309_1_0" index="0" speed="13.89" length="25.86" shape="544.13,91.65 518.27,91.65"/>
    </edge>
    <edge id=":gneJ309_2" function="internal">
        <lane id=":gneJ309_2_0" index="0" speed="13.89" length="25.85" shape="543.89,88.25 538.50,89.08 531.10,90.22 523.69,91.22 518.27,91.65"/>
    </edge>
    <edge id=":gneJ310_0" function="internal">
        <lane id=":gneJ310_0_0" index="0" speed="13.89" length="25.62" shape="741.73,81.65 736.35,82.08 729.02,83.08 721.70,84.22 716.34,85.05"/>
    </edge>
    <edge id=":gneJ310_1" function="internal">
        <lane id=":gneJ310_1_0" index="0" speed="13.89" length="25.63" shape="741.73,81.65 716.10,81.65"/>
    </edge>
    <edge id=":gneJ311_0" function="internal">
        <lane id=":gneJ311_0_0" index="0" speed="13.89" length="25.62" shape="693.66,85.05 688.30,84.22 680.98,83.08 673.65,82.08 668.27,81.65"/>
    </edge>
    <edge id=":gneJ311_1" function="internal">
        <lane id=":gneJ311_1_0" index="0" speed="13.89" length="25.63" shape="693.90,81.65 668.27,81.65"/>
    </edge>
    <edge id=":gneJ312_0" function="internal">
        <lane id=":gneJ312_0_0" index="0" speed="13.89" length="25.62" shape="591.73,81.65 586.35,82.08 579.02,83.08 571.70,84.22 566.34,85.05"/>
    </edge>
    <edge id=":gneJ312_1" function="internal">
        <lane id=":gneJ312_1_0" index="0" speed="13.89" length="25.63" shape="591.73,81.65 566.10,81.65"/>
    </edge>
    <edge id=":gneJ313_0" function="internal">
        <lane id=":gneJ313_0_0" index="0" speed="13.89" length="25.62" shape="543.66,85.05 538.30,84.22 530.98,83.08 523.65,82.08 518.27,81.65"/>
    </edge>
    <edge id=":gneJ313_1" function="internal">
        <lane id=":gneJ313_1_0" index="0" speed="13.89" length="25.63" shape="543.90,81.65 518.27,81.65"/>
    </edge>
    <edge id=":gneJ314_0" function="internal">
        <lane id=":gneJ314_0_0" index="0" speed="13.89" length="25.62" shape="518.27,68.35 523.65,67.92 530.98,66.92 538.30,65.78 543.66,64.95"/>
    </edge>
    <edge id=":gneJ314_1" function="internal">
        <lane id=":gneJ314_1_0" index="0" speed="13.89" length="25.63" shape="518.27,68.35 543.90,68.35"/>
    </edge>
    <edge id=":gneJ319_0" function="internal">
        <lane id=":gneJ319_0_0" index="0" speed="13.89" length="25.62" shape="566.34,64.95 571.70,65.78 579.02,66.92 586.35,67.92 591.73,68.35"/>
    </edge>
    <edge id=":gneJ319_1" function="internal">
        <lane id=":gneJ319_1_0" index="0" speed="13.89" length="25.63" shape="566.10,68.35 591.73,68.35"/>
    </edge>
    <edge id=":gneJ320_0" function="internal">
        <lane id=":gneJ320_0_0" index="0" speed="13.89" length="25.62" shape="668.27,68.35 673.65,67.92 680.98,66.92 688.30,65.78 693.66,64.95"/>
    </edge>
    <edge id=":gneJ320_1" function="internal">
        <lane id=":gneJ320_1_0" index="0" speed="13.89" length="25.63" shape="668.27,68.35 693.90,68.35"/>
    </edge>
    <edge id=":gneJ321_0" function="internal">
        <lane id=":gneJ321_0_0" index="0" speed="13.89" length="25.62" shape="716.34,64.95 721.70,65.78 729.02,66.92 736.35,67.92 741.73,68.35"/>
    </edge>
    <edge id=":gneJ321_1" function="internal">
        <lane id=":gneJ321_1_0" index="0" speed="13.89" length="25.63" shape="716.10,68.35 741.73,68.35"/>
    </edge>
    <edge id=":gneJ322_0" function="internal">
        <lane id=":gneJ322_0_0" index="0" speed="13.89" length="25.62" shape="818.27,68.35 823.65,67.92 830.98,66.92 838.30,65.78 843.66,64.95"/>
    </edge>
    <edge id=":gneJ322_1" function="internal">
        <lane id=":gneJ322_1_0" index="0" speed="13.89" length="25.63" shape="818.27,68.35 843.90,68.35"/>
    </edge>
    <edge id=":gneJ323_0" function="internal">
        <lane id=":gneJ323_0_0" index="0" speed="13.89" length="25.62" shape="866.34,64.95 871.70,65.78 879.02,66.92 886.35,67.92 891.73,68.35"/>
    </edge>
    <edge id=":gneJ323_1" function="internal">
        <lane id=":gneJ323_1_0" index="0" speed="13.89" length="25.63" shape="866.10,68.35 891.73,68.35"/>
    </edge>
    <edge id=":gneJ324_0" function="internal">
        <lane id=":gneJ324_0_0" index="0" speed="13.89" length="25.39" shape="518.50,58.35 523.85,57.92 531.10,56.92 538.34,55.78 543.66,54.95"/>
    </edge>
    <edge id=":gneJ324_1" function="internal">
        <lane id=":gneJ324_1_0" index="0" speed="13.89" length="25.63" shape="518.50,58.35 544.13,58.35"/>
    </edge>
    <edge id=":gneJ324_2" function="internal">
        <lane id=":gneJ324_2_0" index="0" speed="13.89" length="25.62" shape="518.50,58.35 523.88,58.78 531.22,59.78 538.54,60.92 543.89,61.75"/>
    </edge>
    <edge id=":gneJ325_0" function="internal">
        <lane id=":gneJ325_0_0" index="0" speed="13.89" length="25.62" shape="566.34,54.95 571.70,55.78 579.02,56.92 586.35,57.92 591.73,58.35"/>
    </edge>
    <edge id=":gneJ325_1" function="internal">
        <lane id=":gneJ325_1_0" index="0" speed="13.89" length="25.86" shape="565.87,58.35 591.73,58.35"/>
    </edge>
    <edge id=":gneJ325_2" function="internal">
        <lane id=":gneJ325_2_0" index="0" speed="13.89" length="25.85" shape="566.11,61.75 571.50,60.92 578.90,59.78 586.31,58.78 591.73,58.35"/>
    </edge>
    <edge id=":gneJ326_0" function="internal">
        <lane id=":gneJ326_0_0" index="0" speed="13.89" length="25.39" shape="668.50,58.35 673.85,57.92 681.10,56.92 688.34,55.78 693.66,54.95"/>
    </edge>
    <edge id=":gneJ326_1" function="internal">
        <lane id=":gneJ326_1_0" index="0" speed="13.89" length="25.63" shape="668.50,58.35 694.13,58.35"/>
    </edge>
    <edge id=":gneJ326_2" function="internal">
        <lane id=":gneJ326_2_0" index="0" speed="13.89" length="25.62" shape="668.50,58.35 673.88,58.78 681.22,59.78 688.54,60.92 693.89,61.75"/>
    </edge>
    <edge id=":gneJ327_0" function="internal">
        <lane id=":gneJ327_0_0" index="0" speed="13.89" length="25.62" shape="716.34,54.95 721.70,55.78 729.02,56.92 736.35,57.92 741.73,58.35"/>
    </edge>
    <edge id=":gneJ327_1" function="internal">
        <lane id=":gneJ327_1_0" index="0" speed="13.89" length="25.86" shape="715.87,58.35 741.73,58.35"/>
    </edge>
    <edge id=":gneJ327_2" function="internal">
        <lane id=":gneJ327_2_0" index="0" speed="13.89" length="25.85" shape="716.11,61.75 721.50,60.92 728.90,59.78 736.31,58.78 741.73,58.35"/>
    </edge>
    <edge id=":gneJ328_0" function="internal">
        <lane id=":gneJ328_0_0" index="0" speed="13.89" length="25.39" shape="818.50,58.35 823.85,57.92 831.10,56.92 838.34,55.78 843.66,54.95"/>
    </edge>
    <edge id=":gneJ328_1" function="internal">
        <lane id=":gneJ328_1_0" index="0" speed="13.89" length="25.63" shape="818.50,58.35 844.13,58.35"/>
    </edge>
    <edge id=":gneJ328_2" function="internal">
        <lane id=":gneJ328_2_0" index="0" speed="13.89" length="25.62" shape="818.50,58.35 823.88,58.78 831.22,59.78 838.54,60.92 843.89,61.75"/>
    </edge>
    <edge id=":gneJ329_0" function="internal">
        <lane id=":gneJ329_0_0" index="0" speed="13.89" length="25.62" shape="866.34,54.95 871.70,55.78 879.02,56.92 886.35,57.92 891.73,58.35"/>
    </edge>
    <edge id=":gneJ329_1" function="internal">
        <lane id=":gneJ329_1_0" index="0" speed="13.89" length="25.86" shape="865.87,58.35 891.73,58.35"/>
    </edge>
    <edge id=":gneJ329_2" function="internal">
        <lane id=":gneJ329_2_0" index="0" speed="13.89" length="25.85" shape="866.11,61.75 871.50,60.92 878.90,59.78 886.31,58.78 891.73,58.35"/>
    </edge>
    <edge id=":gneJ330_0" function="internal">
        <lane id=":gneJ330_0_0" index="0" speed="13.89" length="25.63" shape="518.50,48.35 544.13,48.35"/>
    </edge>
    <edge id=":gneJ330_1" function="internal">
        <lane id=":gneJ330_1_0" index="0" speed="13.89" length="25.62" shape="518.50,48.35 523.88,48.78 531.22,49.78 538.54,50.92 543.89,51.75"/>
    </edge>
    <edge id=":gneJ331_0" function="internal">
        <lane id=":gneJ331_0_0" index="0" speed="13.89" length="25.63" shape="565.87,48.35 591.50,48.35"/>
    </edge>
    <edge id=":gneJ331_1" function="internal">
        <lane id=":gneJ331_1_0" index="0" speed="13.89" length="25.62" shape="566.11,51.75 571.46,50.92 578.78,49.78 586.12,48.78 591.50,48.35"/>
    </edge>
    <edge id=":gneJ332_0" function="internal">
        <lane id=":gneJ332_0_0" index="0" speed="13.89" length="25.63" shape="668.50,48.35 694.13,48.35"/>
    </edge>
    <edge id=":gneJ332_1" function="internal">
        <lane id=":gneJ332_1_0" index="0" speed="13.89" length="25.62" shape="668.50,48.35 673.88,48.78 681.22,49.78 688.54,50.92 693.89,51.75"/>
    </edge>
    <edge id=":gneJ333_0" function="internal">
        <lane id=":gneJ333_0_0" index="0" speed="13.89" length="25.63" shape="715.87,48.35 741.50,48.35"/>
    </edge>
    <edge id=":gneJ333_1" function="internal">
        <lane id=":gneJ333_1_0" index="0" speed="13.89" length="25.62" shape="716.11,51.75 721.46,50.92 728.78,49.78 736.12,48.78 741.50,48.35"/>
    </edge>
    <edge id=":gneJ334_0" function="internal">
        <lane id=":gneJ334_0_0" index="0" speed="13.89" length="25.63" shape="818.50,48.35 844.13,48.35"/>
    </edge>
    <edge id=":gneJ334_1" function="internal">
        <lane id=":gneJ334_1_0" index="0" speed="13.89" length="25.62" shape="818.50,48.35 823.88,48.78 831.22,49.78 838.54,50.92 843.89,51.75"/>
    </edge>
    <edge id=":gneJ335_0" function="internal">
        <lane id=":gneJ335_0_0" index="0" speed="13.89" length="25.63" shape="865.87,48.35 891.50,48.35"/>
    </edge>
    <edge id=":gneJ335_1" function="internal">
        <lane id=":gneJ335_1_0" index="0" speed="13.89" length="25.62" shape="866.11,51.75 871.46,50.92 878.78,49.78 886.12,48.78 891.50,48.35"/>
    </edge>
    <edge id=":gneJ336_0" function="internal">
        <lane id=":gneJ336_0_0" index="0" speed="13.89" length="25.62" shape="48.35,731.73 47.92,726.35 46.92,719.02 45.78,711.70 44.95,706.34"/>
    </edge>
    <edge id=":gneJ336_1" function="internal">
        <lane id=":gneJ336_1_0" index="0" speed="13.89" length="25.63" shape="48.35,731.73 48.35,706.10"/>
    </edge>
    <edge id=":gneJ337_0" function="internal">
        <lane id=":gneJ337_0_0" index="0" speed="13.89" length="25.63" shape="48.35,683.90 48.35,658.27"/>
    </edge>
    <edge id=":gneJ337_1" function="internal">
        <lane id=":gneJ337_1_0" index="0" speed="13.89" length="25.62" shape="44.95,683.66 45.78,678.30 46.92,670.98 47.92,663.65 48.35,658.27"/>
    </edge>
    <edge id=":gneJ338_0" function="internal">
        <lane id=":gneJ338_0_0" index="0" speed="13.89" length="25.62" shape="48.35,581.73 47.92,576.35 46.92,569.02 45.78,561.70 44.95,556.34"/>
    </edge>
    <edge id=":gneJ338_1" function="internal">
        <lane id=":gneJ338_1_0" index="0" speed="13.89" length="25.63" shape="48.35,581.73 48.35,556.10"/>
    </edge>
    <edge id=":gneJ339_0" function="internal">
        <lane id=":gneJ339_0_0" index="0" speed="13.89" length="25.63" shape="48.35,533.90 48.35,508.27"/>
    </edge>
    <edge id=":gneJ339_1" function="internal">
        <lane id=":gneJ339_1_0" index="0" speed="13.89" length="25.62" shape="44.95,533.66 45.78,528.30 46.92,520.98 47.92,513.65 48.35,508.27"/>
    </edge>
    <edge id=":gneJ340_0" function="internal">
        <lane id=":gneJ340_0_0" index="0" speed="13.89" length="25.62" shape="48.35,431.73 47.92,426.35 46.92,419.02 45.78,411.70 44.95,406.34"/>
    </edge>
    <edge id=":gneJ340_1" function="internal">
        <lane id=":gneJ340_1_0" index="0" speed="13.89" length="25.63" shape="48.35,431.73 48.35,406.10"/>
    </edge>
    <edge id=":gneJ341_0" function="internal">
        <lane id=":gneJ341_0_0" index="0" speed="13.89" length="25.63" shape="48.35,383.90 48.35,358.27"/>
    </edge>
    <edge id=":gneJ341_1" function="internal">
        <lane id=":gneJ341_1_0" index="0" speed="13.89" length="25.62" shape="44.95,383.66 45.78,378.30 46.92,370.98 47.92,363.65 48.35,358.27"/>
    </edge>
    <edge id=":gneJ342_0" function="internal">
        <lane id=":gneJ342_0_0" index="0" speed="13.89" length="25.39" shape="38.35,731.50 37.92,726.15 36.92,718.90 35.78,711.66 34.95,706.34"/>
    </edge>
    <edge id=":gneJ342_1" function="internal">
        <lane id=":gneJ342_1_0" index="0" speed="13.89" length="25.63" shape="38.35,731.50 38.35,705.87"/>
    </edge>
    <edge id=":gneJ342_2" function="internal">
        <lane id=":gneJ342_2_0" index="0" speed="13.89" length="25.62" shape="38.35,731.50 38.78,726.12 39.78,718.78 40.92,711.46 41.75,706.11"/>
    </edge>
    <edge id=":gneJ343_0" function="internal">
        <lane id=":gneJ343_0_0" index="0" speed="13.89" length="25.86" shape="38.35,684.13 38.35,658.27"/>
    </edge>
    <edge id=":gneJ343_1" function="internal">
        <lane id=":gneJ343_1_0" index="0" speed="13.89" length="25.85" shape="41.75,683.89 40.92,678.50 39.78,671.10 38.78,663.69 38.35,658.27"/>
    </edge>
    <edge id=":gneJ343_2" function="internal">
        <lane id=":gneJ343_2_0" index="0" speed="13.89" length="25.62" shape="34.95,683.66 35.78,678.30 36.92,670.98 37.92,663.65 38.35,658.27"/>
    </edge>
    <edge id=":gneJ344_0" function="internal">
        <lane id=":gneJ344_0_0" index="0" speed="13.89" length="25.39" shape="38.35,581.50 37.92,576.15 36.92,568.90 35.78,561.66 34.95,556.34"/>
    </edge>
    <edge id=":gneJ344_1" function="internal">
        <lane id=":gneJ344_1_0" index="0" speed="13.89" length="25.63" shape="38.35,581.50 38.35,555.87"/>
    </edge>
    <edge id=":gneJ344_2" function="internal">
        <lane id=":gneJ344_2_0" index="0" speed="13.89" length="25.62" shape="38.35,581.50 38.78,576.12 39.78,568.78 40.92,561.46 41.75,556.11"/>
    </edge>