<?xml version="1.0" encoding="UTF-8"?>

<!-- generated on 6/26/2018 10:31:32 AM by Netedit Version 0.32.0
<?xml version="1.0" encoding="UTF-8"?>

<configuration xmlns:xsi="http://www.w3.org/2001/XMLSchema-instance" xsi:noNamespaceSchemaLocation="http://sumo.dlr.de/xsd/netconvertConfiguration.xsd">

    <input>
        <sumo-net-file value="C:\Users\abeld\Documents\School\Year%202\Project%202-2\Project_2.2\desktop\assets\Intersection\SinglePoint\SinglePoint.net.xml"/>
    </input>

    <output>
        <output-file value="C:\Users\abeld\Documents\School\Year%202\Project%202-2\Project_2.2\desktop\assets\Intersection\SinglePoint\SinglePoint.net.xml"/>
        <plain-output-prefix value="C:\Users\abeld\Documents\School\Year%202\Project%202-2\Project_2.2\desktop\assets\Intersection\SinglePoint\SinglePoint"/>
    </output>

    <processing>
        <no-turnarounds value="true"/>
        <offset.disable-normalization value="true"/>
        <lefthand value="false"/>
        <junctions.corner-detail value="0"/>
        <rectangular-lane-cut value="false"/>
        <walkingareas value="false"/>
    </processing>

</configuration>
-->

<edges version="0.27" xmlns:xsi="http://www.w3.org/2001/XMLSchema-instance" xsi:noNamespaceSchemaLocation="http://sumo.dlr.de/xsd/edges_file.xsd">
    <edge id="gneE100" from="gneJ60" to="gneJ104" priority="1" numLanes="1" speed="13.89"/>
    <edge id="gneE101" from="gneJ60" to="gneJ102" priority="1" numLanes="1" speed="13.89"/>
    <edge id="gneE102" from="gneJ58" to="gneJ103" priority="1" numLanes="1" speed="13.89"/>
    <edge id="gneE359" from="gneJ6" to="gneJ266" priority="1" numLanes="1" speed="13.89"/>
    <edge id="gneE361" from="gneJ4" to="gneJ269" priority="1" numLanes="1" speed="13.89"/>
    <edge id="gneE362" from="gneJ2" to="gneJ268" priority="1" numLanes="1" speed="13.89"/>
    <edge id="gneE373" from="gneJ272" to="gneJ208" priority="1" numLanes="1" speed="13.89"/>
    <edge id="gneE374" from="gneJ273" to="gneJ11" priority="1" numLanes="1" speed="13.89"/>
    <edge id="gneE375" from="gneJ274" to="gneJ165" priority="1" numLanes="1" speed="13.89"/>
    <edge id="gneE387" from="gneJ8" to="gneJ280" priority="1" numLanes="1" speed="13.89"/>
    <edge id="gneE388" from="gneJ10" to="gneJ281" priority="1" numLanes="1" speed="13.89"/>
    <edge id="gneE389" from="gneJ279" to="gneJ207" priority="1" numLanes="1" speed="13.89"/>
    <edge id="gneE390" from="gneJ278" to="gneJ5" priority="1" numLanes="1" speed="13.89"/>
    <edge id="gneE395" from="gneJ284" to="gneJ7" priority="1" numLanes="1" speed="13.89"/>
    <edge id="gneE396" from="gneJ12" to="gneJ282" priority="1" numLanes="1" speed="13.89"/>
    <edge id="gneE399" from="gneJ14" to="gneJ285" priority="1" numLanes="1" speed="13.89"/>
    <edge id="gneE400" from="gneJ286" to="gneJ25" priority="1" numLanes="1" speed="13.89"/>
    <edge id="gneE401" from="gneJ24" to="gneJ287" priority="1" numLanes="1" speed="13.89"/>
    <edge id="gneE402" from="gneJ288" to="gneJ289" priority="1" numLanes="1" speed="13.89"/>
    <edge id="gneE403" from="gneJ287" to="gneJ290" priority="1" numLanes="1" speed="13.89"/>
    <edge id="gneE404" from="gneJ291" to="gneJ288" priority="1" numLanes="1" speed="13.89"/>
    <edge id="gneE405" from="gneJ292" to="gneJ286" priority="1" numLanes="1" speed="13.89"/>
    <edge id="gneE406" from="gneJ285" to="gneJ293" priority="1" numLanes="1" speed="13.89"/>
    <edge id="gneE407" from="gneJ293" to="gneJ294" priority="1" numLanes="1" speed="13.89"/>
    <edge id="gneE408" from="gneJ294" to="gneJ274" priority="1" numLanes="1" speed="13.89"/>
    <edge id="gneE409" from="gneJ295" to="gneJ291" priority="1" numLanes="1" speed="13.89"/>
    <edge id="gneE410" from="gneJ266" to="gneJ295" priority="1" numLanes="1" speed="13.89"/>
    <edge id="gneE411" from="gneJ290" to="gneJ296" priority="1" numLanes="1" speed="13.89"/>
    <edge id="gneE412" from="gneJ297" to="gneJ292" priority="1" numLanes="1" speed="13.89"/>
    <edge id="gneE413" from="gneJ296" to="gneJ284" priority="1" numLanes="1" speed="13.89"/>
    <edge id="gneE414" from="gneJ282" to="gneJ297" priority="1" numLanes="1" speed="13.89"/>
    <edge id="gneE415" from="gneJ280" to="gneJ298" priority="1" numLanes="1" speed="13.89"/>
    <edge id="gneE416" from="gneJ298" to="gneJ291" priority="1" numLanes="1" speed="13.89"/>
    <edge id="gneE417" from="gneJ268" to="gneJ299" priority="1" numLanes="1" speed="13.89"/>
    <edge id="gneE418" from="gneJ299" to="gneJ292" priority="1" numLanes="1" speed="13.89"/>
    <edge id="gneE419" from="gneJ293" to="gneJ300" priority="1" numLanes="1" speed="13.89"/>
    <edge id="gneE420" from="gneJ300" to="gneJ279" priority="1" numLanes="1" speed="13.89"/>
    <edge id="gneE421" from="gneJ290" to="gneJ301" priority="1" numLanes="1" speed="13.89"/>
    <edge id="gneE422" from="gneJ301" to="gneJ272" priority="1" numLanes="1" speed="13.89"/>
    <edge id="gneE423" from="gneJ269" to="gneJ278" priority="1" numLanes="1" speed="13.89"/>
    <edge id="gneE424" from="gneJ281" to="gneJ273" priority="1" numLanes="1" speed="13.89"/>
    <edge id="gneE425" from="gneJ24" to="gneJ25" priority="1" numLanes="1" speed="13.89"/>
    <edge id="gneE426" from="gneJ22" to="gneJ45" priority="1" numLanes="1" speed="13.89"/>
    <edge id="gneE427" from="gneJ20" to="gneJ21" priority="1" numLanes="1" speed="13.89"/>
    <edge id="gneE428" from="gneJ18" to="gneJ19" priority="1" numLanes="1" speed="13.89"/>
    <edge id="gneE429" from="gneJ16" to="gneJ17" priority="1" numLanes="1" speed="13.89"/>
    <edge id="gneE430" from="gneJ14" to="gneJ289" priority="1" numLanes="1" speed="13.89"/>
    <edge id="gneE449" from="gneJ104" to="gneJ302" priority="1" numLanes="1" speed="13.89"/>
    <edge id="gneE450" from="gneJ302" to="gneJ303" priority="1" numLanes="1" speed="13.89"/>
    <edge id="gneE451" from="gneJ303" to="gneJ304" priority="1" numLanes="1" speed="13.89"/>
    <edge id="gneE452" from="gneJ304" to="gneJ305" priority="1" numLanes="1" speed="13.89"/>
    <edge id="gneE453" from="gneJ305" to="gneJ24" priority="1" numLanes="1" speed="13.89"/>
    <edge id="gneE454" from="gneJ103" to="gneJ306" priority="1" numLanes="1" speed="13.89"/>
    <edge id="gneE455" from="gneJ306" to="gneJ307" priority="1" numLanes="1" speed="13.89"/>
    <edge id="gneE456" from="gneJ307" to="gneJ308" priority="1" numLanes="1" speed="13.89"/>
    <edge id="gneE457" from="gneJ308" to="gneJ309" priority="1" numLanes="1" speed="13.89"/>
    <edge id="gneE458" from="gneJ309" to="gneJ22" priority="1" numLanes="1" speed="13.89"/>
    <edge id="gneE459" from="gneJ102" to="gneJ310" priority="1" numLanes="1" speed="13.89"/>
    <edge id="gneE460" from="gneJ310" to="gneJ311" priority="1" numLanes="1" speed="13.89"/>
    <edge id="gneE461" from="gneJ311" to="gneJ312" priority="1" numLanes="1" speed="13.89"/>
    <edge id="gneE462" from="gneJ312" to="gneJ313" priority="1" numLanes="1" speed="13.89"/>
    <edge id="gneE463" from="gneJ313" to="gneJ20" priority="1" numLanes="1" speed="13.89"/>
    <edge id="gneE464" from="gneJ19" to="gneJ314" priority="1" numLanes="1" speed="13.89"/>
    <edge id="gneE465" from="gneJ314" to="gneJ319" priority="1" numLanes="1" speed="13.89"/>
    <edge id="gneE468" from="gneJ319" to="gneJ320" priority="1" numLanes="1" speed="13.89"/>
    <edge id="gneE469" from="gneJ320" to="gneJ321" priority="1" numLanes="1" speed="13.89"/>
    <edge id="gneE470" from="gneJ321" to="gneJ322" priority="1" numLanes="1" speed="13.89"/>
    <edge id="gneE471" from="gneJ322" to="gneJ323" priority="1" numLanes="1" speed="13.89"/>
    <edge id="gneE472" from="gneJ323" to="east-out1" priority="1" numLanes="1" speed="13.89"/>
    <edge id="gneE473" from="gneJ17" to="gneJ324" priority="1" numLanes="1" speed="13.89"/>
    <edge id="gneE474" from="gneJ324" to="gneJ325" priority="1" numLanes="1" speed="13.89"/>
    <edge id="gneE475" from="gneJ325" to="gneJ326" priority="1" numLanes="1" speed="13.89"/>
    <edge id="gneE476" from="gneJ326" to="gneJ327" priority="1" numLanes="1" speed="13.89"/>
    <edge id="gneE477" from="gneJ327" to="gneJ328" priority="1" numLanes="1" speed="13.89"/>
    <edge id="gneE478" from="gneJ328" to="gneJ329" priority="1" numLanes="1" speed="13.89"/>
    <edge id="gneE479" from="gneJ329" to="east-out2" priority="1" numLanes="1" speed="13.89"/>
    <edge id="gneE48" from="east1" to="gneJ58" priority="1" numLanes="1" speed="13.89"/>
    <edge id="gneE480" from="gneJ289" to="gneJ330" priority="1" numLanes="1" speed="13.89"/>
    <edge id="gneE481" from="gneJ330" to="gneJ331" priority="1" numLanes="1" speed="13.89"/>
    <edge id="gneE482" from="gneJ331" to="gneJ332" priority="1" numLanes="1" speed="13.89"/>
    <edge id="gneE483" from="gneJ332" to="gneJ333" priority="1" numLanes="1" speed="13.89"/>
    <edge id="gneE484" from="gneJ333" to="gneJ334" priority="1" numLanes="1" speed="13.89"/>
    <edge id="gneE485" from="gneJ334" to="gneJ335" priority="1" numLanes="1" speed="13.89"/>
    <edge id="gneE486" from="gneJ335" to="east-out3" priority="1" numLanes="1" speed="13.89"/>
    <edge id="gneE487" from="gneJ302" to="gneJ307" priority="1" numLanes="1" speed="13.89"/>
    <edge id="gneE488" from="gneJ306" to="gneJ303" priority="1" numLanes="1" speed="13.89"/>
    <edge id="gneE489" from="gneJ310" to="gneJ307" priority="1" numLanes="1" speed="13.89"/>
    <edge id="gneE49" from="east2" to="gneJ60" priority="1" numLanes="1" speed="13.89"/>
    <edge id="gneE490" from="gneJ306" to="gneJ311" priority="1" numLanes="1" speed="13.89"/>
    <edge id="gneE491" from="gneJ312" to="gneJ309" priority="1" numLanes="1" speed="13.89"/>
    <edge id="gneE492" from="gneJ308" to="gneJ313" priority="1" numLanes="1" speed="13.89"/>
    <edge id="gneE493" from="gneJ304" to="gneJ309" priority="1" numLanes="1" speed="13.89"/>
    <edge id="gneE494" from="gneJ308" to="gneJ305" priority="1" numLanes="1" speed="13.89"/>
    <edge id="gneE495" from="gneJ314" to="gneJ325" priority="1" numLanes="1" speed="13.89"/>
    <edge id="gneE496" from="gneJ324" to="gneJ319" priority="1" numLanes="1" speed="13.89"/>
    <edge id="gneE497" from="gneJ330" to="gneJ325" priority="1" numLanes="1" speed="13.89"/>
    <edge id="gneE498" from="gneJ324" to="gneJ331" priority="1" numLanes="1" speed="13.89"/>
    <edge id="gneE499" from="gneJ320" to="gneJ327" priority="1" numLanes="1" speed="13.89"/>
    <edge id="gneE50" from="east3" to="gneJ62" priority="1" numLanes="1" speed="13.89"/>
    <edge id="gneE500" from="gneJ326" to="gneJ321" priority="1" numLanes="1" speed="13.89"/>
    <edge id="gneE501" from="gneJ332" to="gneJ327" priority="1" numLanes="1" speed="13.89"/>
    <edge id="gneE502" from="gneJ326" to="gneJ333" priority="1" numLanes="1" speed="13.89"/>
    <edge id="gneE503" from="gneJ322" to="gneJ329" priority="1" numLanes="1" speed="13.89"/>
    <edge id="gneE504" from="gneJ328" to="gneJ323" priority="1" numLanes="1" speed="13.89"/>
    <edge id="gneE505" from="gneJ328" to="gneJ335" priority="1" numLanes="1" speed="13.89"/>
    <edge id="gneE506" from="gneJ334" to="gneJ329" priority="1" numLanes="1" speed="13.89"/>
    <edge id="gneE507" from="north1" to="gneJ336" priority="1" numLanes="1" speed="13.89"/>
    <edge id="gneE508" from="gneJ336" to="gneJ337" priority="1" numLanes="1" speed="13.89"/>
    <edge id="gneE509" from="gneJ337" to="gneJ338" priority="1" numLanes="1" speed="13.89"/>
    <edge id="gneE510" from="gneJ338" to="gneJ339" priority="1" numLanes="1" speed="13.89"/>
    <edge id="gneE511" from="gneJ339" to="gneJ340" priority="1" numLanes="1" speed="13.89"/>
    <edge id="gneE512" from="gneJ340" to="gneJ341" priority="1" numLanes="1" speed="13.89"/>
    <edge id="gneE513" from="gneJ341" to="gneJ8" priority="1" numLanes="1" speed="13.89"/>
    <edge id="gneE514" from="north2" to="gneJ342" priority="1" numLanes="1" speed="13.89"/>
    <edge id="gneE515" from="gneJ342" to="gneJ343" priority="1" numLanes="1" speed="13.89"/>
    <edge id="gneE516" from="gneJ343" to="gneJ344" priority="1" numLanes="1" speed="13.89"/>
    <edge id="gneE517" from="gneJ344" to="gneJ345" priority="1" numLanes="1" speed="13.89"/>
    <edge id="gneE518" from="gneJ345" to="gneJ346" priority="1" numLanes="1" speed="13.89"/>
    <edge id="gneE519" from="gneJ346" to="gneJ347" priority="1" numLanes="1" speed="13.89"/>
    <edge id="gneE520" from="gneJ347" to="gneJ10" priority="1" numLanes="1" speed="13.89"/>
    <edge id="gneE521" from="gneJ207" to="gneJ348" priority="1" numLanes="1" speed="13.89"/>
    <edge id="gneE522" from="gneJ348" to="gneJ349" priority="1" numLanes="1" speed="13.89"/>
    <edge id="gneE523" from="gneJ349" to="gneJ350" priority="1" numLanes="1" speed="13.89"/>
    <edge id="gneE524" from="gneJ350" to="gneJ351" priority="1" numLanes="1" speed="13.89"/>
    <edge id="gneE525" from="gneJ351" to="gneJ352" priority="1" numLanes="1" speed="13.89"/>
    <edge id="gneE526" from="gneJ352" to="gneJ353" priority="1" numLanes="1" speed="13.89"/>
    <edge id="gneE527" from="gneJ353" to="north-out1" priority="1" numLanes="1" speed="13.89"/>
    <edge id="gneE528" from="gneJ5" to="gneJ354" priority="1" numLanes="1" speed="13.89"/>
    <edge id="gneE529" from="gneJ354" to="gneJ355" priority="1" numLanes="1" speed="13.89"/>
    <edge id="gneE530" from="gneJ355" to="gneJ356" priority="1" numLanes="1" speed="13.89"/>
    <edge id="gneE531" from="gneJ356" to="gneJ357" priority="1" numLanes="1" speed="13.89"/>
    <edge id="gneE532" from="gneJ357" to="gneJ358" priority="1" numLanes="1" speed="13.89"/>
    <edge id="gneE533" from="gneJ358" to="gneJ359" priority="1" numLanes="1" speed="13.89"/>
    <edge id="gneE534" from="gneJ359" to="north-out2" priority="1" numLanes="1" speed="13.89"/>
    <edge id="gneE535" from="gneJ7" to="gneJ360" priority="1" numLanes="1" speed="13.89"/>
    <edge id="gneE536" from="gneJ360" to="gneJ361" priority="1" numLanes="1" speed="13.89"/>
    <edge id="gneE537" from="gneJ361" to="gneJ362" priority="1" numLanes="1" speed="13.89"/>
    <edge id="gneE538" from="gneJ362" to="gneJ363" priority="1" numLanes="1" speed="13.89"/>
    <edge id="gneE539" from="gneJ363" to="gneJ364" priority="1" numLanes="1" speed="13.89"/>
    <edge id="gneE540" from="gneJ364" to="gneJ365" priority="1" numLanes="1" speed="13.89"/>
    <edge id="gneE541" from="gneJ365" to="north-out3" priority="1" numLanes="1" speed="13.89"/>
    <edge id="gneE542" from="north3" to="gneJ366" priority="1" numLanes="1" speed="13.89"/>
    <edge id="gneE543" from="gneJ366" to="gneJ367" priority="1" numLanes="1" speed="13.89"/>
    <edge id="gneE544" from="gneJ367" to="gneJ368" priority="1" numLanes="1" speed="13.89"/>
    <edge id="gneE545" from="gneJ368" to="gneJ369" priority="1" numLanes="1" speed="13.89"/>
    <edge id="gneE546" from="gneJ369" to="gneJ370" priority="1" numLanes="1" speed="13.89"/>
    <edge id="gneE547" from="gneJ370" to="gneJ371" priority="1" numLanes="1" speed="13.89"/>
    <edge id="gneE548" from="gneJ371" to="gneJ12" priority="1" numLanes="1" speed="13.89"/>
    <edge id="gneE549" from="west1" to="gneJ372" priority="1" numLanes="1" speed="13.89"/>
    <edge id="gneE550" from="gneJ372" to="gneJ373" priority="1" numLanes="1" speed="13.89"/>
    <edge id="gneE551" from="gneJ373" to="gneJ374" priority="1" numLanes="1" speed="13.89"/>
    <edge id="gneE552" from="gneJ374" to="gneJ375" priority="1" numLanes="1" speed="13.89"/>
    <edge id="gneE553" from="gneJ375" to="gneJ376" priority="1" numLanes="1" speed="13.89"/>
    <edge id="gneE554" from="gneJ376" to="gneJ377" priority="1" numLanes="1" speed="13.89"/>
    <edge id="gneE555" from="gneJ377" to="gneJ18" priority="1" numLanes="1" speed="13.89"/>
    <edge id="gneE556" from="west2" to="gneJ378" priority="1" numLanes="1" speed="13.89"/>
    <edge id="gneE557" from="gneJ378" to="gneJ379" priority="1" numLanes="1" speed="13.89"/>
    <edge id="gneE558" from="gneJ379" to="gneJ380" priority="1" numLanes="1" speed="13.89"/>
    <edge id="gneE559" from="gneJ380" to="gneJ381" priority="1" numLanes="1" speed="13.89"/>
    <edge id="gneE560" from="gneJ381" to="gneJ382" priority="1" numLanes="1" speed="13.89"/>
    <edge id="gneE561" from="gneJ382" to="gneJ383" priority="1" numLanes="1" speed="13.89"/>
    <edge id="gneE562" from="gneJ383" to="gneJ16" priority="1" numLanes="1" speed="13.89"/>
    <edge id="gneE563" from="west3" to="gneJ384" priority="1" numLanes="1" speed="13.89"/>
    <edge id="gneE564" from="gneJ384" to="gneJ385" priority="1" numLanes="1" speed="13.89"/>
    <edge id="gneE565" from="gneJ385" to="gneJ386" priority="1" numLanes="1" speed="13.89"/>
    <edge id="gneE566" from="gneJ386" to="gneJ387" priority="1" numLanes="1" speed="13.89"/>
    <edge id="gneE567" from="gneJ387" to="gneJ388" priority="1" numLanes="1" speed="13.89"/>
    <edge id="gneE568" from="gneJ388" to="gneJ389" priority="1" numLanes="1" speed="13.89"/>
    <edge id="gneE569" from="gneJ389" to="gneJ14" priority="1" numLanes="1" speed="13.89"/>
    <edge id="gneE570" from="gneJ21" to="gneJ390" priority="1" numLanes="1" speed="13.89"/>
    <edge id="gneE571" from="gneJ390" to="gneJ391" priority="1" numLanes="1" speed="13.89"/>
    <edge id="gneE572" from="gneJ391" to="gneJ392" priority="1" numLanes="1" speed="13.89"/>
    <edge id="gneE573" from="gneJ392" to="gneJ393" priority="1" numLanes="1" speed="13.89"/>
    <edge id="gneE574" from="gneJ393" to="gneJ394" priority="1" numLanes="1" speed="13.89"/>
    <edge id="gneE575" from="gneJ394" to="gneJ395" priority="1" numLanes="1" speed="13.89"/>
    <edge id="gneE576" from="gneJ395" to="west-out1" priority="1" numLanes="1" speed="13.89"/>
    <edge id="gneE578" from="gneJ45" to="gneJ397" priority="1" numLanes="1" speed="13.89"/>
    <edge id="gneE579" from="gneJ397" to="gneJ398" priority="1" numLanes="1" speed="13.89"/>
    <edge id="gneE580" from="gneJ398" to="gneJ399" priority="1" numLanes="1" speed="13.89"/>
    <edge id="gneE581" from="gneJ399" to="gneJ400" priority="1" numLanes="1" speed="13.89"/>
    <edge id="gneE582" from="gneJ400" to="gneJ401" priority="1" numLanes="1" speed="13.89"/>
    <edge id="gneE583" from="gneJ401" to="gneJ402" priority="1" numLanes="1" speed="13.89"/>
    <edge id="gneE584" from="gneJ402" to="west-out2" priority="1" numLanes="1" speed="13.89"/>
    <edge id="gneE585" from="gneJ25" to="gneJ403" priority="1" numLanes="1" speed="13.89"/>
    <edge id="gneE586" from="gneJ403" to="gneJ404" priority="1" numLanes="1" speed="13.89"/>
    <edge id="gneE587" from="gneJ404" to="gneJ405" priority="1" numLanes="1" speed="13.89"/>
    <edge id="gneE588" from="gneJ405" to="gneJ406" priority="1" numLanes="1" speed="13.89"/>
    <edge id="gneE590" from="gneJ406" to="gneJ409" priority="1" numLanes="1" speed="13.89"/>
    <edge id="gneE591" from="gneJ409" to="gneJ410" priority="1" numLanes="1" speed="13.89"/>
    <edge id="gneE592" from="gneJ410" to="west-out3" priority="1" numLanes="1" speed="13.89"/>
    <edge id="gneE593" from="gneJ372" to="gneJ379" priority="1" numLanes="1" speed="13.89"/>
    <edge id="gneE594" from="gneJ374" to="gneJ381" priority="1" numLanes="1" speed="13.89"/>
    <edge id="gneE595" from="gneJ376" to="gneJ383" priority="1" numLanes="1" speed="13.89"/>
    <edge id="gneE597" from="gneJ378" to="gneJ373" priority="1" numLanes="1" speed="13.89"/>
    <edge id="gneE598" from="gneJ384" to="gneJ379" priority="1" numLanes="1" speed="13.89"/>
    <edge id="gneE599" from="gneJ378" to="gneJ385" priority="1" numLanes="1" speed="13.89"/>
    <edge id="gneE600" from="gneJ380" to="gneJ375" priority="1" numLanes="1" speed="13.89"/>
    <edge id="gneE601" from="gneJ386" to="gneJ381" priority="1" numLanes="1" speed="13.89"/>
    <edge id="gneE602" from="gneJ380" to="gneJ387" priority="1" numLanes="1" speed="13.89"/>
    <edge id="gneE603" from="gneJ382" to="gneJ377" priority="1" numLanes="1" speed="13.89"/>
    <edge id="gneE604" from="gneJ388" to="gneJ383" priority="1" numLanes="1" speed="13.89"/>
    <edge id="gneE605" from="gneJ382" to="gneJ389" priority="1" numLanes="1" speed="13.89"/>
    <edge id="gneE606" from="gneJ390" to="gneJ398" priority="1" numLanes="1" speed="13.89"/>
    <edge id="gneE607" from="gneJ397" to="gneJ391" priority="1" numLanes="1" speed="13.89"/>
    <edge id="gneE608" from="gneJ403" to="gneJ398" priority="1" numLanes="1" speed="13.89"/>
    <edge id="gneE609" from="gneJ397" to="gneJ404" priority="1" numLanes="1" speed="13.89"/>
    <edge id="gneE610" from="gneJ405" to="gneJ400" priority="1" numLanes="1" speed="13.89"/>
    <edge id="gneE611" from="gneJ399" to="gneJ406" priority="1" numLanes="1" speed="13.89"/>
    <edge id="gneE612" from="gneJ392" to="gneJ400" priority="1" numLanes="1" speed="13.89"/>
    <edge id="gneE613" from="gneJ399" to="gneJ393" priority="1" numLanes="1" speed="13.89"/>
    <edge id="gneE614" from="gneJ394" to="gneJ402" priority="1" numLanes="1" speed="13.89"/>
    <edge id="gneE615" from="gneJ401" to="gneJ395" priority="1" numLanes="1" speed="13.89"/>
    <edge id="gneE616" from="gneJ409" to="gneJ402" priority="1" numLanes="1" speed="13.89"/>
    <edge id="gneE617" from="gneJ401" to="gneJ410" priority="1" numLanes="1" speed="13.89"/>
    <edge id="gneE618" from="south3" to="gneJ412" priority="1" numLanes="1" speed="13.89"/>
    <edge id="gneE619" from="gneJ412" to="gneJ413" priority="1" numLanes="1" speed="13.89"/>
    <edge id="gneE620" from="gneJ413" to="gneJ414" priority="1" numLanes="1" speed="13.89"/>
    <edge id="gneE621" from="gneJ414" to="gneJ415" priority="1" numLanes="1" speed="13.89"/>
    <edge id="gneE622" from="gneJ415" to="gneJ416" priority="1" numLanes="1" speed="13.89"/>
    <edge id="gneE623" from="gneJ416" to="gneJ417" priority="1" numLanes="1" speed="13.89"/>
    <edge id="gneE624" from="gneJ417" to="gneJ6" priority="1" numLanes="1" speed="13.89"/>
    <edge id="gneE625" from="gneJ418" to="gneJ4" priority="1" numLanes="1" speed="13.89"/>
    <edge id="gneE626" from="south2" to="gneJ419" priority="1" numLanes="1" speed="13.89"/>
    <edge id="gneE627" from="gneJ419" to="gneJ420" priority="1" numLanes="1" speed="13.89"/>
    <edge id="gneE628" from="gneJ420" to="gneJ421" priority="1" numLanes="1" speed="13.89"/>
    <edge id="gneE629" from="gneJ421" to="gneJ422" priority="1" numLanes="1" speed="13.89"/>
    <edge id="gneE630" from="gneJ422" to="gneJ423" priority="1" numLanes="1" speed="13.89"/>
    <edge id="gneE631" from="gneJ423" to="gneJ418" priority="1" numLanes="1" speed="13.89"/>
    <edge id="gneE632" from="south1" to="gneJ424" priority="1" numLanes="1" speed="13.89"/>
    <edge id="gneE633" from="gneJ424" to="gneJ425" priority="1" numLanes="1" speed="13.89"/>
    <edge id="gneE634" from="gneJ425" to="gneJ426" priority="1" numLanes="1" speed="13.89"/>
    <edge id="gneE635" from="gneJ426" to="gneJ427" priority="1" numLanes="1" speed="13.89"/>
    <edge id="gneE636" from="gneJ427" to="gneJ428" priority="1" numLanes="1" speed="13.89"/>
    <edge id="gneE637" from="gneJ428" to="gneJ429" priority="1" numLanes="1" speed="13.89"/>
    <edge id="gneE639" from="gneJ429" to="gneJ2" priority="1" numLanes="1" speed="13.89"/>
    <edge id="gneE640" from="gneJ208" to="gneJ432" priority="1" numLanes="1" speed="13.89"/>
    <edge id="gneE641" from="gneJ432" to="gneJ433" priority="1" numLanes="1" speed="13.89"/>
    <edge id="gneE642" from="gneJ433" to="gneJ434" priority="1" numLanes="1" speed="13.89"/>
    <edge id="gneE643" from="gneJ434" to="gneJ435" priority="1" numLanes="1" speed="13.89"/>
    <edge id="gneE644" from="gneJ435" to="gneJ436" priority="1" numLanes="1" speed="13.89"/>
    <edge id="gneE645" from="gneJ436" to="gneJ437" priority="1" numLanes="1" speed="13.89"/>
    <edge id="gneE646" from="gneJ437" to="south-out1" priority="1" numLanes="1" speed="13.89"/>
    <edge id="gneE647" from="gneJ11" to="gneJ438" priority="1" numLanes="1" speed="13.89"/>
    <edge id="gneE648" from="gneJ438" to="gneJ439" priority="1" numLanes="1" speed="13.89"/>
    <edge id="gneE652" from="gneJ439" to="gneJ446" priority="1" numLanes="1" speed="13.89"/>
    <edge id="gneE653" from="gneJ446" to="gneJ447" priority="1" numLanes="1" speed="13.89"/>
    <edge id="gneE654" from="gneJ447" to="gneJ448" priority="1" numLanes="1" speed="13.89"/>
    <edge id="gneE655" from="gneJ448" to="gneJ449" priority="1" numLanes="1" speed="13.89"/>
    <edge id="gneE656" from="gneJ449" to="south-out2" priority="1" numLanes="1" speed="13.89"/>
    <edge id="gneE657" from="gneJ165" to="gneJ450" priority="1" numLanes="1" speed="13.89"/>
    <edge id="gneE658" from="gneJ450" to="gneJ451" priority="1" numLanes="1" speed="13.89"/>
    <edge id="gneE659" from="gneJ451" to="gneJ452" priority="1" numLanes="1" speed="13.89"/>
    <edge id="gneE660" from="gneJ452" to="gneJ453" priority="1" numLanes="1" speed="13.89"/>
    <edge id="gneE661" from="gneJ453" to="gneJ454" priority="1" numLanes="1" speed="13.89"/>
    <edge id="gneE662" from="gneJ454" to="gneJ455" priority="1" numLanes="1" speed="13.89"/>
    <edge id="gneE663" from="gneJ455" to="south-out3" priority="1" numLanes="1" speed="13.89"/>
    <edge id="gneE664" from="gneJ424" to="gneJ420" priority="1" numLanes="1" speed="13.89"/>
    <edge id="gneE665" from="gneJ419" to="gneJ425" priority="1" numLanes="1" speed="13.89"/>
    <edge id="gneE666" from="gneJ419" to="gneJ413" priority="1" numLanes="1" speed="13.89"/>
    <edge id="gneE667" from="gneJ412" to="gneJ420" priority="1" numLanes="1" speed="13.89"/>
    <edge id="gneE668" from="gneJ426" to="gneJ422" priority="1" numLanes="1" speed="13.89"/>
    <edge id="gneE669" from="gneJ421" to="gneJ427" priority="1" numLanes="1" speed="13.89"/>
    <edge id="gneE670" from="gneJ414" to="gneJ422" priority="1" numLanes="1" speed="13.89"/>
    <edge id="gneE671" from="gneJ421" to="gneJ415" priority="1" numLanes="1" speed="13.89"/>
    <edge id="gneE672" from="gneJ428" to="gneJ418" priority="1" numLanes="1" speed="13.89"/>
    <edge id="gneE673" from="gneJ423" to="gneJ429" priority="1" numLanes="1" speed="13.89"/>
    <edge id="gneE674" from="gneJ423" to="gneJ417" priority="1" numLanes="1" speed="13.89"/>
    <edge id="gneE675" from="gneJ416" to="gneJ418" priority="1" numLanes="1" speed="13.89"/>
    <edge id="gneE676" from="gneJ432" to="gneJ439" priority="1" numLanes="1" speed="13.89"/>
    <edge id="gneE677" from="gneJ438" to="gneJ433" priority="1" numLanes="1" speed="13.89"/>
    <edge id="gneE678" from="gneJ438" to="gneJ451" priority="1" numLanes="1" speed="13.89"/>
    <edge id="gneE679" from="gneJ450" to="gneJ439" priority="1" numLanes="1" speed="13.89"/>
    <edge id="gneE680" from="gneJ452" to="gneJ447" priority="1" numLanes="1" speed="13.89"/>
    <edge id="gneE681" from="gneJ446" to="gneJ435" priority="1" numLanes="1" speed="13.89"/>
    <edge id="gneE682" from="gneJ434" to="gneJ447" priority="1" numLanes="1" speed="13.89"/>
    <edge id="gneE683" from="gneJ446" to="gneJ453" priority="1" numLanes="1" speed="13.89"/>
    <edge id="gneE684" from="gneJ436" to="gneJ449" priority="1" numLanes="1" speed="13.89"/>
    <edge id="gneE685" from="gneJ448" to="gneJ437" priority="1" numLanes="1" speed="13.89"/>
    <edge id="gneE686" from="gneJ454" to="gneJ449" priority="1" numLanes="1" speed="13.89"/>
    <edge id="gneE687" from="gneJ448" to="gneJ455" priority="1" numLanes="1" speed="13.89"/>
    <edge id="gneE688" from="gneJ354" to="gneJ349" priority="1" numLanes="1" speed="13.89"/>
    <edge id="gneE689" from="gneJ348" to="gneJ355" priority="1" numLanes="1" speed="13.89"/>
    <edge id="gneE690" from="gneJ354" to="gneJ361" priority="1" numLanes="1" speed="13.89"/>
    <edge id="gneE691" from="gneJ360" to="gneJ355" priority="1" numLanes="1" speed="13.89"/>
    <edge id="gneE692" from="gneJ340" to="gneJ347" priority="1" numLanes="1" speed="13.89"/>
    <edge id="gneE693" from="gneJ346" to="gneJ341" priority="1" numLanes="1" speed="13.89"/>
    <edge id="gneE694" from="gneJ370" to="gneJ347" priority="1" numLanes="1" speed="13.89"/>
    <edge id="gneE695" from="gneJ346" to="gneJ371" priority="1" numLanes="1" speed="13.89"/>
    <edge id="gneE696" from="gneJ362" to="gneJ357" priority="1" numLanes="1" speed="13.89"/>
    <edge id="gneE697" from="gneJ356" to="gneJ363" priority="1" numLanes="1" speed="13.89"/>
    <edge id="gneE699" from="gneJ356" to="gneJ351" priority="1" numLanes="1" speed="13.89"/>
    <edge id="gneE700" from="gneJ350" to="gneJ357" priority="1" numLanes="1" speed="13.89"/>
    <edge id="gneE701" from="gneJ338" to="gneJ345" priority="1" numLanes="1" speed="13.89"/>
    <edge id="gneE702" from="gneJ344" to="gneJ339" priority="1" numLanes="1" speed="13.89"/>
    <edge id="gneE703" from="gneJ368" to="gneJ345" priority="1" numLanes="1" speed="13.89"/>
    <edge id="gneE704" from="gneJ344" to="gneJ369" priority="1" numLanes="1" speed="13.89"/>
    <edge id="gneE705" from="gneJ352" to="gneJ359" priority="1" numLanes="1" speed="13.89"/>
    <edge id="gneE706" from="gneJ358" to="gneJ353" priority="1" numLanes="1" speed="13.89"/>
    <edge id="gneE708" from="gneJ364" to="gneJ359" priority="1" numLanes="1" speed="13.89"/>
    <edge id="gneE709" from="gneJ358" to="gneJ365" priority="1" numLanes="1" speed="13.89"/>
    <edge id="gneE710" from="gneJ336" to="gneJ343" priority="1" numLanes="1" speed="13.89"/>
    <edge id="gneE711" from="gneJ342" to="gneJ367" priority="1" numLanes="1" speed="13.89"/>
    <edge id="gneE712" from="gneJ366" to="gneJ343" priority="1" numLanes="1" speed="13.89"/>
    <edge id="gneE713" from="gneJ342" to="gneJ337" priority="1" numLanes="1" speed="13.89"/>
    <edge id="gneE96" from="gneJ58" to="gneJ102" priority="1" numLanes="1" speed="13.89"/>
    <edge id="gneE97" from="gneJ60" to="gneJ103" priority="1" numLanes="1" speed="13.89"/>
    <edge id="gneE98" from="gneJ62" to="gneJ104" priority="1" numLanes="1" speed="13.89"/>
    <edge id="gneE99" from="gneJ62" to="gneJ103" priority="1" numLanes="1" speed="13.89"/>
</edges>
