<?xml version="1.0" encoding="UTF-8"?>

<!-- generated on 6/26/2018 10:31:32 AM by Netedit Version 0.32.0
<?xml version="1.0" encoding="UTF-8"?>

<configuration xmlns:xsi="http://www.w3.org/2001/XMLSchema-instance" xsi:noNamespaceSchemaLocation="http://sumo.dlr.de/xsd/netconvertConfiguration.xsd">

    <input>
        <sumo-net-file value="C:\Users\abeld\Documents\School\Year%202\Project%202-2\Project_2.2\desktop\assets\Intersection\SinglePoint\SinglePoint.net.xml"/>
    </input>

    <output>
        <output-file value="C:\Users\abeld\Documents\School\Year%202\Project%202-2\Project_2.2\desktop\assets\Intersection\SinglePoint\SinglePoint.net.xml"/>
        <plain-output-prefix value="C:\Users\abeld\Documents\School\Year%202\Project%202-2\Project_2.2\desktop\assets\Intersection\SinglePoint\SinglePoint"/>
    </output>

    <processing>
        <no-turnarounds value="true"/>
        <offset.disable-normalization value="true"/>
        <lefthand value="false"/>
        <junctions.corner-detail value="0"/>
        <rectangular-lane-cut value="false"/>
        <walkingareas value="false"/>
    </processing>

</configuration>
-->

<connections version="0.27" xmlns:xsi="http://www.w3.org/2001/XMLSchema-instance" xsi:noNamespaceSchemaLocation="http://sumo.dlr.de/xsd/connections_file.xsd">
    <connection from="gneE100" to="gneE449" fromLane="0" toLane="0"/>

    <connection from="gneE101" to="gneE459" fromLane="0" toLane="0"/>

    <connection from="gneE102" to="gneE454" fromLane="0" toLane="0"/>

    <connection from="gneE359" to="gneE410" fromLane="0" toLane="0"/>

    <connection from="gneE361" to="gneE423" fromLane="0" toLane="0"/>

    <connection from="gneE362" to="gneE417" fromLane="0" toLane="0"/>

    <connection from="gneE373" to="gneE640" fromLane="0" toLane="0"/>

    <connection from="gneE374" to="gneE647" fromLane="0" toLane="0"/>

    <connection from="gneE375" to="gneE657" fromLane="0" toLane="0"/>

    <connection from="gneE387" to="gneE415" fromLane="0" toLane="0"/>

    <connection from="gneE388" to="gneE424" fromLane="0" toLane="0"/>

    <connection from="gneE389" to="gneE521" fromLane="0" toLane="0"/>

    <connection from="gneE390" to="gneE528" fromLane="0" toLane="0"/>

    <connection from="gneE395" to="gneE535" fromLane="0" toLane="0"/>

    <connection from="gneE396" to="gneE414" fromLane="0" toLane="0"/>

    <connection from="gneE399" to="gneE406" fromLane="0" toLane="0"/>

    <connection from="gneE400" to="gneE585" fromLane="0" toLane="0"/>

    <connection from="gneE401" to="gneE403" fromLane="0" toLane="0"/>

    <connection from="gneE402" to="gneE480" fromLane="0" toLane="0"/>

    <connection from="gneE403" to="gneE411" fromLane="0" toLane="0"/>
    <connection from="gneE403" to="gneE421" fromLane="0" toLane="0"/>

    <connection from="gneE404" to="gneE402" fromLane="0" toLane="0"/>

    <connection from="gneE405" to="gneE400" fromLane="0" toLane="0"/>

    <connection from="gneE406" to="gneE407" fromLane="0" toLane="0"/>
    <connection from="gneE406" to="gneE419" fromLane="0" toLane="0"/>

    <connection from="gneE407" to="gneE408" fromLane="0" toLane="0"/>

    <connection from="gneE408" to="gneE375" fromLane="0" toLane="0"/>

    <connection from="gneE409" to="gneE404" fromLane="0" toLane="0"/>

    <connection from="gneE410" to="gneE409" fromLane="0" toLane="0"/>

    <connection from="gneE411" to="gneE413" fromLane="0" toLane="0"/>

    <connection from="gneE412" to="gneE405" fromLane="0" toLane="0"/>

    <connection from="gneE413" to="gneE395" fromLane="0" toLane="0"/>

    <connection from="gneE414" to="gneE412" fromLane="0" toLane="0"/>

    <connection from="gneE415" to="gneE416" fromLane="0" toLane="0"/>

    <connection from="gneE416" to="gneE404" fromLane="0" toLane="0"/>

    <connection from="gneE417" to="gneE418" fromLane="0" toLane="0"/>

    <connection from="gneE418" to="gneE405" fromLane="0" toLane="0"/>

    <connection from="gneE419" to="gneE420" fromLane="0" toLane="0"/>

    <connection from="gneE420" to="gneE389" fromLane="0" toLane="0"/>

    <connection from="gneE421" to="gneE422" fromLane="0" toLane="0"/>

    <connection from="gneE422" to="gneE373" fromLane="0" toLane="0"/>

    <connection from="gneE423" to="gneE390" fromLane="0" toLane="0"/>

    <connection from="gneE424" to="gneE374" fromLane="0" toLane="0"/>

    <connection from="gneE425" to="gneE585" fromLane="0" toLane="0"/>

    <connection from="gneE426" to="gneE578" fromLane="0" toLane="0"/>

    <connection from="gneE427" to="gneE570" fromLane="0" toLane="0"/>

    <connection from="gneE428" to="gneE464" fromLane="0" toLane="0"/>

    <connection from="gneE429" to="gneE473" fromLane="0" toLane="0"/>

    <connection from="gneE430" to="gneE480" fromLane="0" toLane="0"/>

    <connection from="gneE449" to="gneE450" fromLane="0" toLane="0"/>
    <connection from="gneE449" to="gneE487" fromLane="0" toLane="0"/>

    <connection from="gneE450" to="gneE451" fromLane="0" toLane="0"/>

    <connection from="gneE451" to="gneE452" fromLane="0" toLane="0"/>
    <connection from="gneE451" to="gneE493" fromLane="0" toLane="0"/>

    <connection from="gneE452" to="gneE453" fromLane="0" toLane="0"/>

    <connection from="gneE453" to="gneE401" fromLane="0" toLane="0"/>
    <connection from="gneE453" to="gneE425" fromLane="0" toLane="0"/>

    <connection from="gneE454" to="gneE488" fromLane="0" toLane="0"/>
    <connection from="gneE454" to="gneE455" fromLane="0" toLane="0"/>
    <connection from="gneE454" to="gneE490" fromLane="0" toLane="0"/>

    <connection from="gneE455" to="gneE456" fromLane="0" toLane="0"/>

    <connection from="gneE456" to="gneE494" fromLane="0" toLane="0"/>
    <connection from="gneE456" to="gneE457" fromLane="0" toLane="0"/>
    <connection from="gneE456" to="gneE492" fromLane="0" toLane="0"/>

    <connection from="gneE457" to="gneE458" fromLane="0" toLane="0"/>

    <connection from="gneE458" to="gneE426" fromLane="0" toLane="0"/>

    <connection from="gneE459" to="gneE489" fromLane="0" toLane="0"/>
    <connection from="gneE459" to="gneE460" fromLane="0" toLane="0"/>

    <connection from="gneE460" to="gneE461" fromLane="0" toLane="0"/>

    <connection from="gneE461" to="gneE491" fromLane="0" toLane="0"/>
    <connection from="gneE461" to="gneE462" fromLane="0" toLane="0"/>

    <connection from="gneE462" to="gneE463" fromLane="0" toLane="0"/>

    <connection from="gneE463" to="gneE427" fromLane="0" toLane="0"/>

    <connection from="gneE464" to="gneE495" fromLane="0" toLane="0"/>
    <connection from="gneE464" to="gneE465" fromLane="0" toLane="0"/>

    <connection from="gneE465" to="gneE468" fromLane="0" toLane="0"/>

    <connection from="gneE468" to="gneE499" fromLane="0" toLane="0"/>
    <connection from="gneE468" to="gneE469" fromLane="0" toLane="0"/>

    <connection from="gneE469" to="gneE470" fromLane="0" toLane="0"/>

    <connection from="gneE470" to="gneE503" fromLane="0" toLane="0"/>
    <connection from="gneE470" to="gneE471" fromLane="0" toLane="0"/>

    <connection from="gneE471" to="gneE472" fromLane="0" toLane="0"/>

    <connection from="gneE473" to="gneE498" fromLane="0" toLane="0"/>
    <connection from="gneE473" to="gneE474" fromLane="0" toLane="0"/>
    <connection from="gneE473" to="gneE496" fromLane="0" toLane="0"/>

    <connection from="gneE474" to="gneE475" fromLane="0" toLane="0"/>

    <connection from="gneE475" to="gneE502" fromLane="0" toLane="0"/>
    <connection from="gneE475" to="gneE476" fromLane="0" toLane="0"/>
    <connection from="gneE475" to="gneE500" fromLane="0" toLane="0"/>

    <connection from="gneE476" to="gneE477" fromLane="0" toLane="0"/>

    <connection from="gneE477" to="gneE505" fromLane="0" toLane="0"/>
    <connection from="gneE477" to="gneE478" fromLane="0" toLane="0"/>
    <connection from="gneE477" to="gneE504" fromLane="0" toLane="0"/>

    <connection from="gneE478" to="gneE479" fromLane="0" toLane="0"/>

    <connection from="gneE48" to="gneE102" fromLane="0" toLane="0"/>
    <connection from="gneE48" to="gneE96" fromLane="0" toLane="0"/>

    <connection from="gneE480" to="gneE481" fromLane="0" toLane="0"/>
    <connection from="gneE480" to="gneE497" fromLane="0" toLane="0"/>

    <connection from="gneE481" to="gneE482" fromLane="0" toLane="0"/>

    <connection from="gneE482" to="gneE483" fromLane="0" toLane="0"/>
    <connection from="gneE482" to="gneE501" fromLane="0" toLane="0"/>

    <connection from="gneE483" to="gneE484" fromLane="0" toLane="0"/>

    <connection from="gneE484" to="gneE485" fromLane="0" toLane="0"/>
    <connection from="gneE484" to="gneE506" fromLane="0" toLane="0"/>

    <connection from="gneE485" to="gneE486" fromLane="0" toLane="0"/>

    <connection from="gneE487" to="gneE456" fromLane="0" toLane="0"/>

    <connection from="gneE488" to="gneE451" fromLane="0" toLane="0"/>

    <connection from="gneE489" to="gneE456" fromLane="0" toLane="0"/>

    <connection from="gneE49" to="gneE100" fromLane="0" toLane="0"/>
    <connection from="gneE49" to="gneE97" fromLane="0" toLane="0"/>
    <connection from="gneE49" to="gneE101" fromLane="0" toLane="0"/>

    <connection from="gneE490" to="gneE461" fromLane="0" toLane="0"/>

    <connection from="gneE491" to="gneE458" fromLane="0" toLane="0"/>

    <connection from="gneE492" to="gneE463" fromLane="0" toLane="0"/>

    <connection from="gneE493" to="gneE458" fromLane="0" toLane="0"/>

    <connection from="gneE494" to="gneE453" fromLane="0" toLane="0"/>

    <connection from="gneE495" to="gneE475" fromLane="0" toLane="0"/>

    <connection from="gneE496" to="gneE468" fromLane="0" toLane="0"/>

    <connection from="gneE497" to="gneE475" fromLane="0" toLane="0"/>

    <connection from="gneE498" to="gneE482" fromLane="0" toLane="0"/>

    <connection from="gneE499" to="gneE477" fromLane="0" toLane="0"/>

    <connection from="gneE50" to="gneE98" fromLane="0" toLane="0"/>
    <connection from="gneE50" to="gneE99" fromLane="0" toLane="0"/>

    <connection from="gneE500" to="gneE470" fromLane="0" toLane="0"/>

    <connection from="gneE501" to="gneE477" fromLane="0" toLane="0"/>

    <connection from="gneE502" to="gneE484" fromLane="0" toLane="0"/>

    <connection from="gneE503" to="gneE479" fromLane="0" toLane="0"/>

    <connection from="gneE504" to="gneE472" fromLane="0" toLane="0"/>

    <connection from="gneE505" to="gneE486" fromLane="0" toLane="0"/>

    <connection from="gneE506" to="gneE479" fromLane="0" toLane="0"/>

    <connection from="gneE507" to="gneE710" fromLane="0" toLane="0"/>
    <connection from="gneE507" to="gneE508" fromLane="0" toLane="0"/>

    <connection from="gneE508" to="gneE509" fromLane="0" toLane="0"/>

    <connection from="gneE509" to="gneE701" fromLane="0" toLane="0"/>
    <connection from="gneE509" to="gneE510" fromLane="0" toLane="0"/>

    <connection from="gneE510" to="gneE511" fromLane="0" toLane="0"/>

    <connection from="gneE511" to="gneE692" fromLane="0" toLane="0"/>
    <connection from="gneE511" to="gneE512" fromLane="0" toLane="0"/>

    <connection from="gneE512" to="gneE513" fromLane="0" toLane="0"/>

    <connection from="gneE513" to="gneE387" fromLane="0" toLane="0"/>

    <connection from="gneE514" to="gneE711" fromLane="0" toLane="0"/>
    <connection from="gneE514" to="gneE515" fromLane="0" toLane="0"/>
    <connection from="gneE514" to="gneE713" fromLane="0" toLane="0"/>

    <connection from="gneE515" to="gneE516" fromLane="0" toLane="0"/>

    <connection from="gneE516" to="gneE704" fromLane="0" toLane="0"/>
    <connection from="gneE516" to="gneE517" fromLane="0" toLane="0"/>
    <connection from="gneE516" to="gneE702" fromLane="0" toLane="0"/>

    <connection from="gneE517" to="gneE518" fromLane="0" toLane="0"/>

    <connection from="gneE518" to="gneE695" fromLane="0" toLane="0"/>
    <connection from="gneE518" to="gneE519" fromLane="0" toLane="0"/>
    <connection from="gneE518" to="gneE693" fromLane="0" toLane="0"/>

    <connection from="gneE519" to="gneE520" fromLane="0" toLane="0"/>

    <connection from="gneE520" to="gneE388" fromLane="0" toLane="0"/>

    <connection from="gneE521" to="gneE689" fromLane="0" toLane="0"/>
    <connection from="gneE521" to="gneE522" fromLane="0" toLane="0"/>

    <connection from="gneE522" to="gneE523" fromLane="0" toLane="0"/>

    <connection from="gneE523" to="gneE700" fromLane="0" toLane="0"/>
    <connection from="gneE523" to="gneE524" fromLane="0" toLane="0"/>

    <connection from="gneE524" to="gneE525" fromLane="0" toLane="0"/>

    <connection from="gneE525" to="gneE705" fromLane="0" toLane="0"/>
    <connection from="gneE525" to="gneE526" fromLane="0" toLane="0"/>

    <connection from="gneE526" to="gneE527" fromLane="0" toLane="0"/>

    <connection from="gneE528" to="gneE690" fromLane="0" toLane="0"/>
    <connection from="gneE528" to="gneE529" fromLane="0" toLane="0"/>
    <connection from="gneE528" to="gneE688" fromLane="0" toLane="0"/>

    <connection from="gneE529" to="gneE530" fromLane="0" toLane="0"/>

    <connection from="gneE530" to="gneE697" fromLane="0" toLane="0"/>
    <connection from="gneE530" to="gneE531" fromLane="0" toLane="0"/>
    <connection from="gneE530" to="gneE699" fromLane="0" toLane="0"/>

    <connection from="gneE531" to="gneE532" fromLane="0" toLane="0"/>

    <connection from="gneE532" to="gneE709" fromLane="0" toLane="0"/>
    <connection from="gneE532" to="gneE533" fromLane="0" toLane="0"/>
    <connection from="gneE532" to="gneE706" fromLane="0" toLane="0"/>

    <connection from="gneE533" to="gneE534" fromLane="0" toLane="0"/>

    <connection from="gneE535" to="gneE536" fromLane="0" toLane="0"/>
    <connection from="gneE535" to="gneE691" fromLane="0" toLane="0"/>

    <connection from="gneE536" to="gneE537" fromLane="0" toLane="0"/>

    <connection from="gneE537" to="gneE538" fromLane="0" toLane="0"/>
    <connection from="gneE537" to="gneE696" fromLane="0" toLane="0"/>

    <connection from="gneE538" to="gneE539" fromLane="0" toLane="0"/>

    <connection from="gneE539" to="gneE540" fromLane="0" toLane="0"/>
    <connection from="gneE539" to="gneE708" fromLane="0" toLane="0"/>

    <connection from="gneE540" to="gneE541" fromLane="0" toLane="0"/>

    <connection from="gneE542" to="gneE543" fromLane="0" toLane="0"/>
    <connection from="gneE542" to="gneE712" fromLane="0" toLane="0"/>

    <connection from="gneE543" to="gneE544" fromLane="0" toLane="0"/>

    <connection from="gneE544" to="gneE545" fromLane="0" toLane="0"/>
    <connection from="gneE544" to="gneE703" fromLane="0" toLane="0"/>

    <connection from="gneE545" to="gneE546" fromLane="0" toLane="0"/>

    <connection from="gneE546" to="gneE547" fromLane="0" toLane="0"/>
    <connection from="gneE546" to="gneE694" fromLane="0" toLane="0"/>

    <connection from="gneE547" to="gneE548" fromLane="0" toLane="0"/>

    <connection from="gneE548" to="gneE396" fromLane="0" toLane="0"/>

    <connection from="gneE549" to="gneE593" fromLane="0" toLane="0"/>
    <connection from="gneE549" to="gneE550" fromLane="0" toLane="0"/>

    <connection from="gneE550" to="gneE551" fromLane="0" toLane="0"/>

    <connection from="gneE551" to="gneE594" fromLane="0" toLane="0"/>
    <connection from="gneE551" to="gneE552" fromLane="0" toLane="0"/>

    <connection from="gneE552" to="gneE553" fromLane="0" toLane="0"/>

    <connection from="gneE553" to="gneE595" fromLane="0" toLane="0"/>
    <connection from="gneE553" to="gneE554" fromLane="0" toLane="0"/>

    <connection from="gneE554" to="gneE555" fromLane="0" toLane="0"/>

    <connection from="gneE555" to="gneE428" fromLane="0" toLane="0"/>

    <connection from="gneE556" to="gneE599" fromLane="0" toLane="0"/>
    <connection from="gneE556" to="gneE557" fromLane="0" toLane="0"/>
    <connection from="gneE556" to="gneE597" fromLane="0" toLane="0"/>

    <connection from="gneE557" to="gneE558" fromLane="0" toLane="0"/>

    <connection from="gneE558" to="gneE602" fromLane="0" toLane="0"/>
    <connection from="gneE558" to="gneE559" fromLane="0" toLane="0"/>
    <connection from="gneE558" to="gneE600" fromLane="0" toLane="0"/>

    <connection from="gneE559" to="gneE560" fromLane="0" toLane="0"/>

    <connection from="gneE560" to="gneE605" fromLane="0" toLane="0"/>
    <connection from="gneE560" to="gneE561" fromLane="0" toLane="0"/>
    <connection from="gneE560" to="gneE603" fromLane="0" toLane="0"/>

    <connection from="gneE561" to="gneE562" fromLane="0" toLane="0"/>

    <connection from="gneE562" to="gneE429" fromLane="0" toLane="0"/>

    <connection from="gneE563" to="gneE564" fromLane="0" toLane="0"/>
    <connection from="gneE563" to="gneE598" fromLane="0" toLane="0"/>

    <connection from="gneE564" to="gneE565" fromLane="0" toLane="0"/>

    <connection from="gneE565" to="gneE566" fromLane="0" toLane="0"/>
    <connection from="gneE565" to="gneE601" fromLane="0" toLane="0"/>

    <connection from="gneE566" to="gneE567" fromLane="0" toLane="0"/>

    <connection from="gneE567" to="gneE568" fromLane="0" toLane="0"/>
    <connection from="gneE567" to="gneE604" fromLane="0" toLane="0"/>

    <connection from="gneE568" to="gneE569" fromLane="0" toLane="0"/>

    <connection from="gneE569" to="gneE399" fromLane="0" toLane="0"/>
    <connection from="gneE569" to="gneE430" fromLane="0" toLane="0"/>

    <connection from="gneE570" to="gneE606" fromLane="0" toLane="0"/>
    <connection from="gneE570" to="gneE571" fromLane="0" toLane="0"/>

    <connection from="gneE571" to="gneE572" fromLane="0" toLane="0"/>

    <connection from="gneE572" to="gneE612" fromLane="0" toLane="0"/>
    <connection from="gneE572" to="gneE573" fromLane="0" toLane="0"/>

    <connection from="gneE573" to="gneE574" fromLane="0" toLane="0"/>

    <connection from="gneE574" to="gneE614" fromLane="0" toLane="0"/>
    <connection from="gneE574" to="gneE575" fromLane="0" toLane="0"/>

    <connection from="gneE575" to="gneE576" fromLane="0" toLane="0"/>

    <connection from="gneE578" to="gneE609" fromLane="0" toLane="0"/>
    <connection from="gneE578" to="gneE579" fromLane="0" toLane="0"/>
    <connection from="gneE578" to="gneE607" fromLane="0" toLane="0"/>

    <connection from="gneE579" to="gneE580" fromLane="0" toLane="0"/>

    <connection from="gneE580" to="gneE611" fromLane="0" toLane="0"/>
    <connection from="gneE580" to="gneE581" fromLane="0" toLane="0"/>
    <connection from="gneE580" to="gneE613" fromLane="0" toLane="0"/>

    <connection from="gneE581" to="gneE582" fromLane="0" toLane="0"/>

    <connection from="gneE582" to="gneE617" fromLane="0" toLane="0"/>
    <connection from="gneE582" to="gneE583" fromLane="0" toLane="0"/>
    <connection from="gneE582" to="gneE615" fromLane="0" toLane="0"/>

    <connection from="gneE583" to="gneE584" fromLane="0" toLane="0"/>

    <connection from="gneE585" to="gneE586" fromLane="0" toLane="0"/>
    <connection from="gneE585" to="gneE608" fromLane="0" toLane="0"/>

    <connection from="gneE586" to="gneE587" fromLane="0" toLane="0"/>

    <connection from="gneE587" to="gneE588" fromLane="0" toLane="0"/>
    <connection from="gneE587" to="gneE610" fromLane="0" toLane="0"/>

    <connection from="gneE588" to="gneE590" fromLane="0" toLane="0"/>

    <connection from="gneE590" to="gneE591" fromLane="0" toLane="0"/>
    <connection from="gneE590" to="gneE616" fromLane="0" toLane="0"/>

    <connection from="gneE591" to="gneE592" fromLane="0" toLane="0"/>

    <connection from="gneE593" to="gneE558" fromLane="0" toLane="0"/>

    <connection from="gneE594" to="gneE560" fromLane="0" toLane="0"/>

    <connection from="gneE595" to="gneE562" fromLane="0" toLane="0"/>

    <connection from="gneE597" to="gneE551" fromLane="0" toLane="0"/>

    <connection from="gneE598" to="gneE558" fromLane="0" toLane="0"/>

    <connection from="gneE599" to="gneE565" fromLane="0" toLane="0"/>

    <connection from="gneE600" to="gneE553" fromLane="0" toLane="0"/>

    <connection from="gneE601" to="gneE560" fromLane="0" toLane="0"/>

    <connection from="gneE602" to="gneE567" fromLane="0" toLane="0"/>

    <connection from="gneE603" to="gneE555" fromLane="0" toLane="0"/>

    <connection from="gneE604" to="gneE562" fromLane="0" toLane="0"/>

    <connection from="gneE605" to="gneE569" fromLane="0" toLane="0"/>

    <connection from="gneE606" to="gneE580" fromLane="0" toLane="0"/>

    <connection from="gneE607" to="gneE572" fromLane="0" toLane="0"/>

    <connection from="gneE608" to="gneE580" fromLane="0" toLane="0"/>

    <connection from="gneE609" to="gneE587" fromLane="0" toLane="0"/>

    <connection from="gneE610" to="gneE582" fromLane="0" toLane="0"/>

    <connection from="gneE611" to="gneE590" fromLane="0" toLane="0"/>

    <connection from="gneE612" to="gneE582" fromLane="0" toLane="0"/>

    <connection from="gneE613" to="gneE574" fromLane="0" toLane="0"/>

    <connection from="gneE614" to="gneE584" fromLane="0" toLane="0"/>

    <connection from="gneE615" to="gneE576" fromLane="0" toLane="0"/>

    <connection from="gneE616" to="gneE584" fromLane="0" toLane="0"/>

    <connection from="gneE617" to="gneE592" fromLane="0" toLane="0"/>

    <connection from="gneE618" to="gneE619" fromLane="0" toLane="0"/>
    <connection from="gneE618" to="gneE667" fromLane="0" toLane="0"/>

    <connection from="gneE619" to="gneE620" fromLane="0" toLane="0"/>

    <connection from="gneE620" to="gneE621" fromLane="0" toLane="0"/>
    <connection from="gneE620" to="gneE670" fromLane="0" toLane="0"/>

    <connection from="gneE621" to="gneE622" fromLane="0" toLane="0"/>

    <connection from="gneE622" to="gneE623" fromLane="0" toLane="0"/>
    <connection from="gneE622" to="gneE675" fromLane="0" toLane="0"/>

    <connection from="gneE623" to="gneE624" fromLane="0" toLane="0"/>

    <connection from="gneE624" to="gneE359" fromLane="0" toLane="0"/>

    <connection from="gneE625" to="gneE361" fromLane="0" toLane="0"/>

    <connection from="gneE626" to="gneE666" fromLane="0" toLane="0"/>
    <connection from="gneE626" to="gneE627" fromLane="0" toLane="0"/>
    <connection from="gneE626" to="gneE665" fromLane="0" toLane="0"/>

    <connection from="gneE627" to="gneE628" fromLane="0" toLane="0"/>

    <connection from="gneE628" to="gneE671" fromLane="0" toLane="0"/>
    <connection from="gneE628" to="gneE629" fromLane="0" toLane="0"/>
    <connection from="gneE628" to="gneE669" fromLane="0" toLane="0"/>

    <connection from="gneE629" to="gneE630" fromLane="0" toLane="0"/>

    <connection from="gneE630" to="gneE674" fromLane="0" toLane="0"/>
    <connection from="gneE630" to="gneE631" fromLane="0" toLane="0"/>
    <connection from="gneE630" to="gneE673" fromLane="0" toLane="0"/>

    <connection from="gneE631" to="gneE625" fromLane="0" toLane="0"/>

    <connection from="gneE632" to="gneE664" fromLane="0" toLane="0"/>
    <connection from="gneE632" to="gneE633" fromLane="0" toLane="0"/>

    <connection from="gneE633" to="gneE634" fromLane="0" toLane="0"/>

    <connection from="gneE634" to="gneE668" fromLane="0" toLane="0"/>
    <connection from="gneE634" to="gneE635" fromLane="0" toLane="0"/>

    <connection from="gneE635" to="gneE636" fromLane="0" toLane="0"/>

    <connection from="gneE636" to="gneE672" fromLane="0" toLane="0"/>
    <connection from="gneE636" to="gneE637" fromLane="0" toLane="0"/>

    <connection from="gneE637" to="gneE639" fromLane="0" toLane="0"/>

    <connection from="gneE639" to="gneE362" fromLane="0" toLane="0"/>

    <connection from="gneE640" to="gneE676" fromLane="0" toLane="0"/>
    <connection from="gneE640" to="gneE641" fromLane="0" toLane="0"/>

    <connection from="gneE641" to="gneE642" fromLane="0" toLane="0"/>

    <connection from="gneE642" to="gneE682" fromLane="0" toLane="0"/>
    <connection from="gneE642" to="gneE643" fromLane="0" toLane="0"/>

    <connection from="gneE643" to="gneE644" fromLane="0" toLane="0"/>

    <connection from="gneE644" to="gneE684" fromLane="0" toLane="0"/>
    <connection from="gneE644" to="gneE645" fromLane="0" toLane="0"/>

    <connection from="gneE645" to="gneE646" fromLane="0" toLane="0"/>

    <connection from="gneE647" to="gneE678" fromLane="0" toLane="0"/>
    <connection from="gneE647" to="gneE648" fromLane="0" toLane="0"/>
    <connection from="gneE647" to="gneE677" fromLane="0" toLane="0"/>

    <connection from="gneE648" to="gneE652" fromLane="0" toLane="0"/>

    <connection from="gneE652" to="gneE683" fromLane="0" toLane="0"/>
    <connection from="gneE652" to="gneE653" fromLane="0" toLane="0"/>
    <connection from="gneE652" to="gneE681" fromLane="0" toLane="0"/>

    <connection from="gneE653" to="gneE654" fromLane="0" toLane="0"/>

    <connection from="gneE654" to="gneE687" fromLane="0" toLane="0"/>
    <connection from="gneE654" to="gneE655" fromLane="0" toLane="0"/>
    <connection from="gneE654" to="gneE685" fromLane="0" toLane="0"/>

    <connection from="gneE655" to="gneE656" fromLane="0" toLane="0"/>

    <connection from="gneE657" to="gneE658" fromLane="0" toLane="0"/>
    <connection from="gneE657" to="gneE679" fromLane="0" toLane="0"/>

    <connection from="gneE658" to="gneE659" fromLane="0" toLane="0"/>

    <connection from="gneE659" to="gneE660" fromLane="0" toLane="0"/>
    <connection from="gneE659" to="gneE680" fromLane="0" toLane="0"/>

    <connection from="gneE660" to="gneE661" fromLane="0" toLane="0"/>

    <connection from="gneE661" to="gneE662" fromLane="0" toLane="0"/>
    <connection from="gneE661" to="gneE686" fromLane="0" toLane="0"/>

    <connection from="gneE662" to="gneE663" fromLane="0" toLane="0"/>

    <connection from="gneE664" to="gneE628" fromLane="0" toLane="0"/>

    <connection from="gneE665" to="gneE634" fromLane="0" toLane="0"/>

    <connection from="gneE666" to="gneE620" fromLane="0" toLane="0"/>

    <connection from="gneE667" to="gneE628" fromLane="0" toLane="0"/>

    <connection from="gneE668" to="gneE630" fromLane="0" toLane="0"/>

    <connection from="gneE669" to="gneE636" fromLane="0" toLane="0"/>

    <connection from="gneE670" to="gneE630" fromLane="0" toLane="0"/>

    <connection from="gneE671" to="gneE622" fromLane="0" toLane="0"/>

    <connection from="gneE672" to="gneE625" fromLane="0" toLane="0"/>

    <connection from="gneE673" to="gneE639" fromLane="0" toLane="0"/>

    <connection from="gneE674" to="gneE624" fromLane="0" toLane="0"/>

    <connection from="gneE675" to="gneE625" fromLane="0" toLane="0"/>

    <connection from="gneE676" to="gneE652" fromLane="0" toLane="0"/>

    <connection from="gneE677" to="gneE642" fromLane="0" toLane="0"/>

    <connection from="gneE678" to="gneE659" fromLane="0" toLane="0"/>

    <connection from="gneE679" to="gneE652" fromLane="0" toLane="0"/>

    <connection from="gneE680" to="gneE654" fromLane="0" toLane="0"/>

    <connection from="gneE681" to="gneE644" fromLane="0" toLane="0"/>

    <connection from="gneE682" to="gneE654" fromLane="0" toLane="0"/>

    <connection from="gneE683" to="gneE661" fromLane="0" toLane="0"/>

    <connection from="gneE684" to="gneE656" fromLane="0" toLane="0"/>

    <connection from="gneE685" to="gneE646" fromLane="0" toLane="0"/>

    <connection from="gneE686" to="gneE656" fromLane="0" toLane="0"/>

    <connection from="gneE687" to="gneE663" fromLane="0" toLane="0"/>

    <connection from="gneE688" to="gneE523" fromLane="0" toLane="0"/>

    <connection from="gneE689" to="gneE530" fromLane="0" toLane="0"/>

    <connection from="gneE690" to="gneE537" fromLane="0" toLane="0"/>

    <connection from="gneE691" to="gneE530" fromLane="0" toLane="0"/>

    <connection from="gneE692" to="gneE520" fromLane="0" toLane="0"/>

    <connection from="gneE693" to="gneE513" fromLane="0" toLane="0"/>

    <connection from="gneE694" to="gneE520" fromLane="0" toLane="0"/>

    <connection from="gneE695" to="gneE548" fromLane="0" toLane="0"/>

    <connection from="gneE696" to="gneE532" fromLane="0" toLane="0"/>

    <connection from="gneE697" to="gneE539" fromLane="0" toLane="0"/>

    <connection from="gneE699" to="gneE525" fromLane="0" toLane="0"/>

    <connection from="gneE700" to="gneE532" fromLane="0" toLane="0"/>

    <connection from="gneE701" to="gneE518" fromLane="0" toLane="0"/>

    <connection from="gneE702" to="gneE511" fromLane="0" toLane="0"/>

    <connection from="gneE703" to="gneE518" fromLane="0" toLane="0"/>

    <connection from="gneE704" to="gneE546" fromLane="0" toLane="0"/>

    <connection from="gneE705" to="gneE534" fromLane="0" toLane="0"/>

    <connection from="gneE706" to="gneE527" fromLane="0" toLane="0"/>

    <connection from="gneE708" to="gneE534" fromLane="0" toLane="0"/>

    <connection from="gneE709" to="gneE541" fromLane="0" toLane="0"/>

    <connection from="gneE710" to="gneE516" fromLane="0" toLane="0"/>

    <connection from="gneE711" to="gneE544" fromLane="0" toLane="0"/>

    <connection from="gneE712" to="gneE516" fromLane="0" toLane="0"/>

    <connection from="gneE713" to="gneE509" fromLane="0" toLane="0"/>

    <connection from="gneE96" to="gneE459" fromLane="0" toLane="0"/>

    <connection from="gneE97" to="gneE454" fromLane="0" toLane="0"/>

    <connection from="gneE98" to="gneE449" fromLane="0" toLane="0"/>

    <connection from="gneE99" to="gneE454" fromLane="0" toLane="0"/>

</connections>
