<?xml version="1.0" encoding="UTF-8"?>

<!-- generated on 6/26/2018 10:27:04 AM by Netedit Version 0.32.0
<?xml version="1.0" encoding="UTF-8"?>

<configuration xmlns:xsi="http://www.w3.org/2001/XMLSchema-instance" xsi:noNamespaceSchemaLocation="http://sumo.dlr.de/xsd/netconvertConfiguration.xsd">

    <input>
        <sumo-net-file value="C:\Users\abeld\Documents\School\Year%202\Project%202-2\Project_2.2\desktop\assets\Intersection\SinglePoint\SinglePoint.net.xml"/>
    </input>

    <output>
        <output-file value="C:\Users\abeld\Documents\School\Year%202\Project%202-2\Project_2.2\desktop\assets\Intersection\SinglePoint\SinglePoint.net.xml"/>
        <plain-output-prefix value="C:\Users\abeld\Documents\School\Year%202\Project%202-2\Project_2.2\desktop\assets\Intersection\SinglePoint\SinglePoint"/>
    </output>

    <processing>
        <no-turnarounds value="true"/>
        <offset.disable-normalization value="true"/>
        <lefthand value="false"/>
        <junctions.corner-detail value="0"/>
        <rectangular-lane-cut value="false"/>
        <walkingareas value="false"/>
    </processing>

</configuration>
-->

<nodes version="0.27" xmlns:xsi="http://www.w3.org/2001/XMLSchema-instance" xsi:noNamespaceSchemaLocation="http://sumo.dlr.de/xsd/nodes_file.xsd">
    <location netOffset="0.00,0.00" convBoundary="-840.00,-640.00,940.00,780.00" origBoundary="-10000000000.00,-10000000000.00,10000000000.00,10000000000.00" projParameter="!"/>

    <node id="east-out1" x="940.00" y="70.00" type="dead_end"/>
    <node id="east-out2" x="940.00" y="60.00" type="dead_end"/>
    <node id="east-out3" x="940.00" y="50.00" type="dead_end"/>
    <node id="east1" x="940.00" y="80.00" type="dead_end"/>
    <node id="east2" x="940.00" y="90.00" type="dead_end"/>
    <node id="east3" x="940.00" y="100.00" type="dead_end"/>
    <node id="gneJ10" x="40.00" y="250.00" type="priority"/>
    <node id="gneJ102" x="820.00" y="80.00" type="priority"/>
    <node id="gneJ103" x="820.00" y="90.00" type="priority"/>
    <node id="gneJ104" x="820.00" y="100.00" type="priority"/>
    <node id="gneJ11" x="40.00" y="-100.00" type="priority"/>
    <node id="gneJ12" x="30.00" y="250.00" type="priority"/>
    <node id="gneJ14" x="-160.00" y="50.00" type="priority"/>
    <node id="gneJ15" x="270.00" y="50.00" type="dead_end"/>
    <node id="gneJ156" x="-840.00" y="100.00" type="dead_end"/>
    <node id="gneJ16" x="-160.00" y="60.00" type="priority"/>
    <node id="gneJ165" x="30.00" y="-100.00" type="priority"/>
    <node id="gneJ17" x="270.00" y="60.00" type="priority"/>
    <node id="gneJ18" x="-160.00" y="70.00" type="priority"/>
    <node id="gneJ19" x="270.00" y="70.00" type="priority"/>
    <node id="gneJ2" x="60.00" y="-100.00" type="priority"/>
    <node id="gneJ20" x="270.00" y="80.00" type="priority"/>
    <node id="gneJ207" x="60.00" y="250.00" type="priority"/>
    <node id="gneJ208" x="50.00" y="-100.00" type="priority"/>
    <node id="gneJ21" x="-160.00" y="80.00" type="priority"/>
    <node id="gneJ22" x="270.00" y="90.00" type="priority"/>
    <node id="gneJ24" x="270.00" y="100.00" type="priority"/>
    <node id="gneJ25" x="-160.00" y="100.00" type="priority"/>
    <node id="gneJ266" x="80.00" y="-70.00" type="priority"/>
    <node id="gneJ268" x="60.00" y="-70.00" type="priority"/>
    <node id="gneJ269" x="70.00" y="-70.00" type="priority"/>
    <node id="gneJ272" x="50.00" y="-70.00" type="priority"/>
    <node id="gneJ273" x="40.00" y="-70.00" type="priority"/>
    <node id="gneJ274" x="30.00" y="-70.00" type="priority"/>
    <node id="gneJ278" x="70.00" y="220.00" type="priority"/>
    <node id="gneJ279" x="60.00" y="220.00" type="priority"/>
    <node id="gneJ280" x="50.00" y="220.00" type="priority"/>
    <node id="gneJ281" x="40.00" y="220.00" type="priority"/>
    <node id="gneJ282" x="30.00" y="220.00" type="priority"/>
    <node id="gneJ284" x="80.00" y="220.00" type="priority"/>
    <node id="gneJ285" x="-120.00" y="30.00" type="priority"/>
    <node id="gneJ286" x="-120.00" y="120.00" type="priority"/>
    <node id="gneJ287" x="230.00" y="120.00" type="priority"/>
    <node id="gneJ288" x="230.00" y="30.00" type="priority"/>
    <node id="gneJ289" x="270.00" y="50.00" type="priority"/>
    <node id="gneJ290" x="120.00" y="120.00" type="priority"/>
    <node id="gneJ291" x="120.00" y="30.00" type="priority"/>
    <node id="gneJ292" x="-10.00" y="120.00" type="priority"/>
    <node id="gneJ293" x="-10.00" y="30.00" type="priority"/>
    <node id="gneJ294" x="20.00" y="20.00" type="priority"/>
    <node id="gneJ295" x="90.00" y="20.00" type="priority"/>
    <node id="gneJ296" x="90.00" y="130.00" type="priority"/>
    <node id="gneJ297" x="20.00" y="130.00" type="priority"/>
    <node id="gneJ298" x="50.00" y="120.00" type="priority"/>
    <node id="gneJ299" x="60.00" y="30.00" type="priority"/>
    <node id="gneJ300" x="60.00" y="120.00" type="priority"/>
    <node id="gneJ301" x="50.00" y="30.00" type="priority"/>
    <node id="gneJ302" x="740.00" y="100.00" type="priority"/>
    <node id="gneJ303" x="670.00" y="100.00" type="priority"/>
    <node id="gneJ304" x="590.00" y="100.00" type="priority"/>
    <node id="gneJ305" x="520.00" y="100.00" type="priority"/>
    <node id="gneJ306" x="740.00" y="90.00" type="priority"/>
    <node id="gneJ307" x="670.00" y="90.00" type="priority"/>
    <node id="gneJ308" x="590.00" y="90.00" type="priority"/>
    <node id="gneJ309" x="520.00" y="90.00" type="priority"/>
    <node id="gneJ310" x="740.00" y="80.00" type="priority"/>
    <node id="gneJ311" x="670.00" y="80.00" type="priority"/>
    <node id="gneJ312" x="590.00" y="80.00" type="priority"/>
    <node id="gneJ313" x="520.00" y="80.00" type="priority"/>
    <node id="gneJ314" x="520.00" y="70.00" type="priority"/>
    <node id="gneJ319" x="590.00" y="70.00" type="priority"/>
    <node id="gneJ320" x="670.00" y="70.00" type="priority"/>
    <node id="gneJ321" x="740.00" y="70.00" type="priority"/>
    <node id="gneJ322" x="820.00" y="70.00" type="priority"/>
    <node id="gneJ323" x="890.00" y="70.00" type="priority"/>
    <node id="gneJ324" x="520.00" y="60.00" type="priority"/>
    <node id="gneJ325" x="590.00" y="60.00" type="priority"/>
    <node id="gneJ326" x="670.00" y="60.00" type="priority"/>
    <node id="gneJ327" x="740.00" y="60.00" type="priority"/>
    <node id="gneJ328" x="820.00" y="60.00" type="priority"/>
    <node id="gneJ329" x="890.00" y="60.00" type="priority"/>
    <node id="gneJ330" x="520.00" y="50.00" type="priority"/>
    <node id="gneJ331" x="590.00" y="50.00" type="priority"/>
    <node id="gneJ332" x="670.00" y="50.00" type="priority"/>
    <node id="gneJ333" x="740.00" y="50.00" type="priority"/>
    <node id="gneJ334" x="820.00" y="50.00" type="priority"/>
    <node id="gneJ335" x="890.00" y="50.00" type="priority"/>
    <node id="gneJ336" x="50.00" y="730.00" type="priority"/>
    <node id="gneJ337" x="50.00" y="660.00" type="priority"/>
    <node id="gneJ338" x="50.00" y="580.00" type="priority"/>
    <node id="gneJ339" x="50.00" y="510.00" type="priority"/>
    <node id="gneJ340" x="50.00" y="430.00" type="priority"/>
    <node id="gneJ341" x="50.00" y="360.00" type="priority"/>
    <node id="gneJ342" x="40.00" y="730.00" type="priority"/>
    <node id="gneJ343" x="40.00" y="660.00" type="priority"/>
    <node id="gneJ344" x="40.00" y="580.00" type="priority"/>
    <node id="gneJ345" x="40.00" y="510.00" type="priority"/>
    <node id="gneJ346" x="40.00" y="430.00" type="priority"/>
    <node id="gneJ347" x="40.00" y="360.00" type="priority"/>
    <node id="gneJ348" x="60.00" y="360.00" type="priority"/>
    <node id="gneJ349" x="60.00" y="430.00" type="priority"/>
    <node id="gneJ350" x="60.00" y="510.00" type="priority"/>
    <node id="gneJ351" x="60.00" y="580.00" type="priority"/>
    <node id="gneJ352" x="60.00" y="660.00" type="priority"/>
    <node id="gneJ353" x="60.00" y="730.00" type="priority"/>
    <node id="gneJ354" x="70.00" y="360.00" type="priority"/>
    <node id="gneJ355" x="70.00" y="430.00" type="priority"/>
    <node id="gneJ356" x="70.00" y="510.00" type="priority"/>
    <node id="gneJ357" x="70.00" y="580.00" type="priority"/>
    <node id="gneJ358" x="70.00" y="660.00" type="priority"/>
    <node id="gneJ359" x="70.00" y="730.00" type="priority"/>
    <node id="gneJ360" x="80.00" y="360.00" type="priority"/>
    <node id="gneJ361" x="80.00" y="430.00" type="priority"/>
    <node id="gneJ362" x="80.00" y="510.00" type="priority"/>
    <node id="gneJ363" x="80.00" y="580.00" type="priority"/>
    <node id="gneJ364" x="80.00" y="660.00" type="priority"/>
    <node id="gneJ365" x="80.00" y="730.00" type="priority"/>
    <node id="gneJ366" x="30.00" y="730.00" type="priority"/>
    <node id="gneJ367" x="30.00" y="660.00" type="priority"/>
    <node id="gneJ368" x="30.00" y="580.00" type="priority"/>
    <node id="gneJ369" x="30.00" y="510.00" type="priority"/>
    <node id="gneJ370" x="30.00" y="430.00" type="priority"/>
    <node id="gneJ371" x="30.00" y="360.00" type="priority"/>
    <node id="gneJ372" x="-790.00" y="70.00" type="priority"/>
    <node id="gneJ373" x="-720.00" y="70.00" type="priority"/>
    <node id="gneJ374" x="-640.00" y="70.00" type="priority"/>
    <node id="gneJ375" x="-570.00" y="70.00" type="priority"/>
    <node id="gneJ376" x="-490.00" y="70.00" type="priority"/>
    <node id="gneJ377" x="-420.00" y="70.00" type="priority"/>
    <node id="gneJ378" x="-790.00" y="60.00" type="priority"/>
    <node id="gneJ379" x="-720.00" y="60.00" type="priority"/>
    <node id="gneJ380" x="-640.00" y="60.00" type="priority"/>
    <node id="gneJ381" x="-570.00" y="60.00" type="priority"/>
    <node id="gneJ382" x="-490.00" y="60.00" type="priority"/>
    <node id="gneJ383" x="-420.00" y="60.00" type="priority"/>
    <node id="gneJ384" x="-790.00" y="50.00" type="priority"/>
    <node id="gneJ385" x="-720.00" y="50.00" type="priority"/>
    <node id="gneJ386" x="-640.00" y="50.00" type="priority"/>
    <node id="gneJ387" x="-570.00" y="50.00" type="priority"/>
    <node id="gneJ388" x="-490.00" y="50.00" type="priority"/>
    <node id="gneJ389" x="-420.00" y="50.00" type="priority"/>
    <node id="gneJ390" x="-420.00" y="80.00" type="priority"/>
    <node id="gneJ391" x="-490.00" y="80.00" type="priority"/>
    <node id="gneJ392" x="-570.00" y="80.00" type="priority"/>
    <node id="gneJ393" x="-640.00" y="80.00" type="priority"/>
    <node id="gneJ394" x="-720.00" y="80.00" type="priority"/>
    <node id="gneJ395" x="-790.00" y="80.00" type="priority"/>
    <node id="gneJ397" x="-420.00" y="90.00" type="priority"/>
    <node id="gneJ398" x="-490.00" y="90.00" type="priority"/>
    <node id="gneJ399" x="-570.00" y="90.00" type="priority"/>
    <node id="gneJ4" x="70.00" y="-100.00" type="priority"/>
    <node id="gneJ400" x="-640.00" y="90.00" type="priority"/>
    <node id="gneJ401" x="-720.00" y="90.00" type="priority"/>
    <node id="gneJ402" x="-790.00" y="90.00" type="priority"/>
    <node id="gneJ403" x="-420.00" y="100.00" type="priority"/>
    <node id="gneJ404" x="-490.00" y="100.00" type="priority"/>
    <node id="gneJ405" x="-570.00" y="100.00" type="priority"/>
    <node id="gneJ406" x="-640.00" y="100.00" type="priority"/>
    <node id="gneJ409" x="-720.00" y="100.00" type="priority"/>
    <node id="gneJ410" x="-790.00" y="100.00" type="priority"/>
    <node id="gneJ412" x="80.00" y="-590.00" type="priority"/>
    <node id="gneJ413" x="80.00" y="-530.00" type="priority"/>
    <node id="gneJ414" x="80.00" y="-450.00" type="priority"/>
    <node id="gneJ415" x="80.00" y="-380.00" type="priority"/>
    <node id="gneJ416" x="80.00" y="-300.00" type="priority"/>
    <node id="gneJ417" x="80.00" y="-230.00" type="priority"/>
    <node id="gneJ418" x="70.00" y="-230.00" type="priority"/>
    <node id="gneJ419" x="70.00" y="-590.00" type="priority"/>
    <node id="gneJ420" x="70.00" y="-530.00" type="priority"/>
    <node id="gneJ421" x="70.00" y="-450.00" type="priority"/>
    <node id="gneJ422" x="70.00" y="-380.00" type="priority"/>
    <node id="gneJ423" x="70.00" y="-300.00" type="priority"/>
    <node id="gneJ424" x="60.00" y="-590.00" type="priority"/>
    <node id="gneJ425" x="60.00" y="-530.00" type="priority"/>
    <node id="gneJ426" x="60.00" y="-450.00" type="priority"/>
    <node id="gneJ427" x="60.00" y="-380.00" type="priority"/>
    <node id="gneJ428" x="60.00" y="-300.00" type="priority"/>
    <node id="gneJ429" x="60.00" y="-230.00" type="priority"/>
    <node id="gneJ432" x="50.00" y="-230.00" type="priority"/>
    <node id="gneJ433" x="50.00" y="-300.00" type="priority"/>
    <node id="gneJ434" x="50.00" y="-380.00" type="priority"/>
    <node id="gneJ435" x="50.00" y="-450.00" type="priority"/>
    <node id="gneJ436" x="50.00" y="-530.00" type="priority"/>
    <node id="gneJ437" x="50.00" y="-590.00" type="priority"/>
    <node id="gneJ438" x="40.00" y="-230.00" type="priority"/>
    <node id="gneJ439" x="40.00" y="-300.00" type="priority"/>
    <node id="gneJ446" x="40.00" y="-380.00" type="priority"/>
    <node id="gneJ447" x="40.00" y="-450.00" type="priority"/>
    <node id="gneJ448" x="40.00" y="-530.00" type="priority"/>
    <node id="gneJ449" x="40.00" y="-590.00" type="priority"/>
    <node id="gneJ45" x="-160.00" y="90.00" type="priority"/>
    <node id="gneJ450" x="30.00" y="-230.00" type="priority"/>
    <node id="gneJ451" x="30.00" y="-300.00" type="priority"/>
    <node id="gneJ452" x="30.00" y="-380.00" type="priority"/>
    <node id="gneJ453" x="30.00" y="-450.00" type="priority"/>
    <node id="gneJ454" x="30.00" y="-530.00" type="priority"/>
    <node id="gneJ455" x="30.00" y="-590.00" type="priority"/>
    <node id="gneJ5" x="70.00" y="250.00" type="priority"/>
    <node id="gneJ58" x="890.00" y="80.00" type="priority"/>
    <node id="gneJ6" x="80.00" y="-100.00" type="priority"/>
    <node id="gneJ60" x="890.00" y="90.00" type="priority"/>
    <node id="gneJ62" x="890.00" y="100.00" type="priority"/>
    <node id="gneJ7" x="80.00" y="250.00" type="priority"/>
    <node id="gneJ8" x="50.00" y="250.00" type="priority"/>
    <node id="north-out1" x="60.00" y="780.00" type="dead_end"/>
    <node id="north-out2" x="70.00" y="780.00" type="dead_end"/>
    <node id="north-out3" x="80.00" y="780.00" type="dead_end"/>
    <node id="north1" x="50.00" y="780.00" type="dead_end"/>
    <node id="north2" x="40.00" y="780.00" type="dead_end"/>
    <node id="north3" x="30.00" y="780.00" type="dead_end"/>
    <node id="south-out1" x="50.00" y="-640.00" type="dead_end"/>
    <node id="south-out2" x="40.00" y="-640.00" type="dead_end"/>
    <node id="south-out3" x="30.00" y="-640.00" type="dead_end"/>
    <node id="south1" x="60.00" y="-640.00" type="dead_end"/>
    <node id="south2" x="70.00" y="-640.00" type="dead_end"/>
    <node id="south3" x="80.00" y="-640.00" type="dead_end"/>
    <node id="west-out1" x="-840.00" y="80.00" type="dead_end"/>
    <node id="west-out2" x="-840.00" y="90.00" type="dead_end"/>
    <node id="west-out3" x="-840.00" y="100.00" type="dead_end"/>
    <node id="west1" x="-840.00" y="70.00" type="dead_end"/>
    <node id="west2" x="-840.00" y="60.00" type="dead_end"/>
    <node id="west3" x="-840.00" y="50.00" type="dead_end"/>
</nodes>
