<?xml version="1.0" encoding="UTF-8"?>

<!-- generated on 16/05/2018 14:07:45 by Netedit Version 0.32.0
<?xml version="1.0" encoding="UTF-8"?>

<configuration xmlns:xsi="http://www.w3.org/2001/XMLSchema-instance" xsi:noNamespaceSchemaLocation="http://sumo.dlr.de/xsd/netconvertConfiguration.xsd">

    <input>
        <sumo-net-file value="C:\Users\Abel\Documents\School\Year%202\Project%202-2\MapXmls\Turbine\Turbine1.net.xml"/>
    </input>

    <output>
        <output-file value="C:\Users\Abel\Documents\School\Year%202\Project%202-2\MapXmls\Turbine\Turbine1.net.xml"/>
        <plain-output-prefix value="C:\Users\Abel\Documents\School\Year%202\Project%202-2\MapXmls\Turbine\TurbineInterchange1"/>
    </output>

    <processing>
        <no-turnarounds value="true"/>
        <offset.disable-normalization value="true"/>
        <lefthand value="false"/>
        <junctions.corner-detail value="0"/>
        <rectangular-lane-cut value="false"/>
        <walkingareas value="false"/>
    </processing>

</configuration>
-->

<nodes version="0.27" xmlns:xsi="http://www.w3.org/2001/XMLSchema-instance" xsi:noNamespaceSchemaLocation="http://sumo.dlr.de/xsd/nodes_file.xsd">
    <location netOffset="-342724.40,-2800450.10" convBoundary="0.00,0.00,10986.59,5125.08" origBoundary="55.437090,25.313453,55.546689,25.359128" projParameter="+proj=utm +zone=40 +ellps=WGS84 +datum=WGS84 +units=m +no_defs"/>

    <node id="1193454928" x="3211.17" y="2901.84" type="priority"/>
    <node id="1193462675" x="2967.55" y="2764.53" type="priority"/>
    <node id="1845139242" x="1953.76" y="1130.09" type="dead_end"/>
    <node id="1945026555" x="3377.68" y="2091.97" type="priority"/>
    <node id="2194387408" x="3531.90" y="3469.30" type="priority"/>
    <node id="2194490703" x="2579.86" y="3099.43" type="priority"/>
    <node id="2194490767" x="2369.92" y="2797.75" type="priority"/>
    <node id="2194532275" x="2618.96" y="2878.00" type="priority"/>
    <node id="2194532282" x="2698.24" y="2687.66" type="priority"/>
    <node id="2194532285" x="2482.84" y="2746.19" type="priority"/>
    <node id="2194532288" x="2663.96" y="2799.24" type="priority"/>
    <node id="2194532289" x="2768.58" y="2956.57" type="priority"/>
    <node id="2194532299" x="2511.29" y="2723.74" type="priority"/>
    <node id="2194532302" x="2738.60" y="2743.97" type="priority"/>
    <node id="2194532309" x="2556.41" y="2659.04" type="priority"/>
    <node id="2194532315" x="2895.75" y="2815.21" type="priority"/>
    <node id="2194532321" x="2464.58" y="2724.50" type="priority"/>
    <node id="2194532325" x="2706.73" y="2861.41" type="priority"/>
    <node id="2194532331" x="2400.77" y="2810.95" type="priority"/>
    <node id="2194532333" x="2784.89" y="2810.42" type="priority"/>
    <node id="2194532337" x="2404.71" y="2770.72" type="priority"/>
    <node id="2194532340" x="2808.08" y="2683.72" type="priority"/>
    <node id="2194532346" x="2855.89" y="3011.94" type="priority"/>
    <node id="2194532358" x="2422.64" y="2793.70" type="priority"/>
    <node id="2194532363" x="2616.97" y="2736.12" type="priority"/>
    <node id="2195360337" x="3194.96" y="2487.92" type="priority"/>
    <node id="2195360391" x="3076.36" y="2554.26" type="priority"/>
    <node id="2195360400" x="3204.39" y="2500.78" type="priority"/>
    <node id="2195360495" x="3205.03" y="2757.99" type="right_before_left"/>
    <node id="2195360752" x="3249.72" y="2960.11" type="priority"/>
    <node id="2195360795" x="3181.51" y="2664.89" type="right_before_left"/>
    <node id="2195360841" x="3139.64" y="2611.57" type="right_before_left"/>
    <node id="2195360842" x="3214.61" y="2792.51" type="right_before_left"/>
    <node id="2195360891" x="3171.17" y="2818.52" type="priority"/>
    <node id="2195361047" x="3216.41" y="2713.81" type="right_before_left"/>
    <node id="2195361072" x="3291.51" y="2619.47" type="right_before_left"/>
    <node id="2204603971" x="1944.18" y="2234.44" type="priority"/>
    <node id="2204603995" x="2169.23" y="2838.13" type="priority"/>
    <node id="2204604011" x="1949.18" y="2519.15" type="priority"/>
    <node id="2204604027" x="1993.02" y="2972.47" type="priority"/>
    <node id="2204604031" x="2134.08" y="2261.07" type="priority"/>
    <node id="2204604032" x="2112.78" y="2759.11" type="priority"/>
    <node id="2204604049" x="2090.08" y="2444.74" type="priority"/>
    <node id="2204604054" x="1835.45" y="1824.90" type="priority"/>
    <node id="2204604082" x="2014.56" y="2475.16" type="priority"/>
    <node id="2204604086" x="2016.50" y="2339.79" type="priority"/>
    <node id="2204673524" x="2365.72" y="2040.63" type="priority"/>
    <node id="2204673541" x="2410.09" y="2106.75" type="priority"/>
    <node id="2204673557" x="2229.96" y="2789.28" type="priority"/>
    <node id="2204673560" x="2350.57" y="2576.10" type="priority"/>
    <node id="2204673562" x="2036.70" y="2507.29" type="priority"/>
    <node id="2204673572" x="2471.47" y="2369.89" type="priority"/>
    <node id="2204673576" x="2101.82" y="2461.77" type="priority"/>
    <node id="2204673595" x="2136.84" y="2863.89" type="priority"/>
    <node id="2204673615" x="2126.49" y="2109.54" type="priority"/>
    <node id="2204673645" x="2413.13" y="2528.02" type="priority"/>
    <node id="2204673663" x="2217.51" y="2241.05" type="priority"/>
    <node id="2204673694" x="2172.23" y="2174.63" type="priority"/>
    <node id="2204673696" x="2187.34" y="2068.20" type="priority"/>
    <node id="2204673700" x="2275.92" y="1912.34" type="priority"/>
    <node id="2204673704" x="2217.09" y="2381.88" type="priority"/>
    <node id="2204673712" x="2060.78" y="2154.19" type="priority"/>
    <node id="2204673721" x="2283.28" y="2337.52" type="priority"/>
    <node id="2204673727" x="2275.62" y="2729.41" type="priority"/>
    <node id="2204673730" x="2501.13" y="2577.64" type="priority"/>
    <node id="2204673743" x="2455.02" y="2173.70" type="priority"/>
    <node id="2204673775" x="2446.05" y="2502.71" type="priority"/>
    <node id="2204673783" x="2205.69" y="2365.27" type="priority"/>
    <node id="2204673787" x="2238.66" y="2660.29" type="priority"/>
    <node id="2204673798" x="2599.49" y="2384.79" type="priority"/>
    <node id="2204673805" x="2103.60" y="2868.08" type="priority"/>
    <node id="2204673826" x="2106.17" y="2220.38" type="priority"/>
    <node id="2204673836" x="2551.94" y="2315.09" type="priority"/>
    <node id="2204673838" x="2307.10" y="2372.47" type="priority"/>
    <node id="2204673879" x="2148.82" y="2832.65" type="priority"/>
    <node id="2204673890" x="2175.67" y="2709.78" type="priority"/>
    <node id="2204673913" x="2520.74" y="2445.31" type="priority"/>
    <node id="2204673928" x="2359.25" y="2448.97" type="priority"/>
    <node id="2204673948" x="2261.98" y="2306.28" type="priority"/>
    <node id="2204673951" x="2127.14" y="2849.82" type="right_before_left"/>
    <node id="2204673954" x="2165.91" y="2816.34" type="priority"/>
    <node id="2204673963" x="2082.13" y="2044.07" type="priority"/>
    <node id="2204673973" x="2501.70" y="2238.27" type="priority"/>
    <node id="2204673979" x="2143.74" y="2001.73" type="priority"/>
    <node id="2204673989" x="2321.98" y="1976.71" type="priority"/>
    <node id="2204673995" x="1948.32" y="1989.15" type="priority"/>
    <node id="2204673999" x="2218.79" y="2774.44" type="priority"/>
    <node id="2204708664" x="2586.59" y="2394.70" type="priority"/>
    <node id="2204708771" x="2538.10" y="2324.52" type="priority"/>
    <node id="2204708863" x="2573.30" y="2404.91" type="priority"/>
    <node id="2204746944" x="2288.41" y="2713.43" type="dead_end"/>
    <node id="2204746945" x="2382.62" y="2640.66" type="dead_end"/>
    <node id="2204746960" x="2471.15" y="2578.60" type="priority"/>
    <node id="2204746961" x="2477.96" y="2573.48" type="priority"/>
    <node id="2204746963" x="2237.31" y="2479.75" type="right_before_left"/>
    <node id="2204746965" x="2256.60" y="2584.87" type="priority"/>
    <node id="2204746966" x="2466.60" y="2572.53" type="priority"/>
    <node id="2204746969" x="2286.52" y="2612.36" type="priority"/>
    <node id="2204746973" x="2349.53" y="2696.94" type="priority"/>
    <node id="2204746977" x="2251.36" y="2591.15" type="right_before_left"/>
    <node id="2204746992" x="2279.31" y="2574.57" type="right_before_left"/>
    <node id="2204746993" x="2183.52" y="2515.12" type="right_before_left"/>
    <node id="2204746996" x="2294.28" y="2606.11" type="priority"/>
    <node id="2204746998" x="2265.41" y="2590.49" type="right_before_left"/>
    <node id="2204747000" x="2420.97" y="2618.46" type="priority"/>
    <node id="2204747001" x="2261.25" y="2589.13" type="priority"/>
    <node id="2204747005" x="2283.75" y="2566.87" type="right_before_left"/>
    <node id="2204747011" x="2339.42" y="2572.11" type="dead_end"/>
    <node id="2204747015" x="2478.51" y="2596.61" type="priority"/>
    <node id="2204747016" x="2226.39" y="2462.80" type="right_before_left"/>
    <node id="2204747017" x="2241.53" y="2653.26" type="dead_end"/>
    <node id="2204747024" x="2553.74" y="2517.31" type="priority"/>
    <node id="2204747025" x="2279.78" y="2578.90" type="priority"/>
    <node id="2204747032" x="2272.89" y="2566.88" type="priority"/>
    <node id="2204747044" x="2240.87" y="2477.40" type="priority"/>
    <node id="2204747046" x="2208.23" y="2474.91" type="right_before_left"/>
    <node id="2204747051" x="2596.67" y="2493.45" type="priority"/>
    <node id="2204747055" x="2452.70" y="2583.97" type="priority"/>
    <node id="2204747059" x="2498.86" y="2559.53" type="priority"/>
    <node id="2204747060" x="2402.21" y="2631.54" type="priority"/>
    <node id="2204747061" x="2358.87" y="2690.31" type="priority"/>
    <node id="2204747062" x="2432.25" y="2633.45" type="priority"/>
    <node id="2204747063" x="2254.90" y="2580.86" type="right_before_left"/>
    <node id="2204758318" x="2309.23" y="2079.75" type="priority"/>
    <node id="2204758328" x="2549.97" y="2491.62" type="right_before_left"/>
    <node id="2204758330" x="2580.97" y="2468.11" type="priority"/>
    <node id="2204758340" x="2265.95" y="2014.79" type="priority"/>
    <node id="2204758346" x="2506.56" y="2524.54" type="priority"/>
    <node id="2204758350" x="2564.44" y="2508.93" type="priority"/>
    <node id="2204774371" x="2335.68" y="2859.81" type="priority"/>
    <node id="2204774372" x="2319.39" y="2872.57" type="priority"/>
    <node id="2204774395" x="2366.75" y="2835.50" type="priority"/>
    <node id="2204774398" x="2320.11" y="2836.79" type="priority"/>
    <node id="2206676963" x="3026.72" y="2132.67" type="right_before_left"/>
    <node id="2206677032" x="2780.15" y="2158.05" type="right_before_left"/>
    <node id="2206677068" x="2955.79" y="2007.03" type="right_before_left"/>
    <node id="2206677070" x="2790.82" y="2006.46" type="right_before_left"/>
    <node id="2206677082" x="3155.17" y="2078.03" type="right_before_left"/>
    <node id="2206677098" x="3166.60" y="2070.12" type="right_before_left"/>
    <node id="2206677128" x="3035.02" y="2126.74" type="right_before_left"/>
    <node id="2206677148" x="2690.69" y="2075.83" type="priority"/>
    <node id="2206677163" x="3078.34" y="1944.92" type="right_before_left"/>
    <node id="2206677168" x="3012.63" y="2191.72" type="right_before_left"/>
    <node id="2206677183" x="2747.85" y="2114.92" type="right_before_left"/>
    <node id="2206677187" x="2698.62" y="2107.96" type="right_before_left"/>
    <node id="2206677197" x="3066.44" y="2158.54" type="right_before_left"/>
    <node id="2206677204" x="3122.14" y="2070.34" type="right_before_left"/>
    <node id="2206677210" x="2708.18" y="2063.41" type="right_before_left"/>
    <node id="2206677228" x="2998.45" y="2069.08" type="right_before_left"/>
    <node id="2206677233" x="2755.52" y="2030.50" type="right_before_left"/>
    <node id="2206677267" x="3152.04" y="2048.80" type="right_before_left"/>
    <node id="2206677280" x="2986.44" y="2151.93" type="right_before_left"/>
    <node id="2206677305" x="3049.40" y="2149.41" type="right_before_left"/>
    <node id="2206677318" x="3129.09" y="2081.36" type="right_before_left"/>
    <node id="2206677325" x="3025.98" y="2112.49" type="right_before_left"/>
    <node id="2206677331" x="2712.34" y="2127.14" type="right_before_left"/>
    <node id="2206677337" x="2967.12" y="2023.82" type="right_before_left"/>
    <node id="2206677350" x="3057.79" y="2111.37" type="priority"/>
    <node id="2206677373" x="3070.36" y="1934.99" type="priority"/>
    <node id="2206677375" x="2993.65" y="2090.97" type="right_before_left"/>
    <node id="2206677377" x="3159.45" y="2059.65" type="right_before_left"/>
    <node id="2206677380" x="3175.01" y="2082.45" type="priority"/>
    <node id="2206677421" x="3147.80" y="2067.98" type="right_before_left"/>
    <node id="2206677431" x="3136.82" y="2026.50" type="right_before_left"/>
    <node id="2206677442" x="2715.28" y="2110.32" type="right_before_left"/>
    <node id="2206677444" x="2939.42" y="1961.26" type="priority"/>
    <node id="2206677458" x="2785.36" y="2089.24" type="right_before_left"/>
    <node id="2206677474" x="2770.88" y="2099.08" type="right_before_left"/>
    <node id="2206677506" x="3046.97" y="2118.67" type="right_before_left"/>
    <node id="2206677514" x="2797.87" y="2016.56" type="right_before_left"/>
    <node id="2206680232" x="2844.48" y="2003.77" type="right_before_left"/>
    <node id="2206680236" x="2627.98" y="1919.56" type="priority"/>
    <node id="2206680239" x="2714.98" y="1971.86" type="priority"/>
    <node id="2206680246" x="2741.78" y="2150.97" type="right_before_left"/>
    <node id="2206680261" x="2722.41" y="1841.03" type="priority"/>
    <node id="2206680274" x="2726.71" y="1989.20" type="right_before_left"/>
    <node id="267572440" x="0.00" y="4168.44" type="dead_end"/>
    <node id="3128376032" x="2615.19" y="2062.15" type="priority"/>
    <node id="3128376046" x="2610.84" y="2525.87" type="priority"/>
    <node id="3128376057" x="2419.34" y="1890.18" type="priority"/>
    <node id="3128376070" x="2377.74" y="2757.77" type="priority"/>
    <node id="3128376109" x="2116.31" y="2929.30" type="priority"/>
    <node id="3128376122" x="2477.39" y="1863.47" type="dead_end"/>
    <node id="3128376135" x="2164.59" y="1487.24" type="priority"/>
    <node id="3128376172" x="2749.88" y="2586.37" type="priority"/>
    <node id="3128376205" x="2790.79" y="2233.94" type="priority"/>
    <node id="3128376340" x="3073.77" y="2851.23" type="priority"/>
    <node id="3128376416" x="3074.49" y="2736.46" type="priority"/>
    <node id="3128376419" x="2293.79" y="2740.28" type="priority"/>
    <node id="3128376543" x="2623.37" y="2185.91" type="priority"/>
    <node id="3128376596" x="2257.08" y="2802.26" type="priority"/>
    <node id="3128376599" x="2996.91" y="2500.94" type="priority"/>
    <node id="3128376607" x="2563.01" y="2527.31" type="priority"/>
    <node id="3128376717" x="2404.71" y="2655.24" type="priority"/>
    <node id="3128805236" x="2784.39" y="2309.43" type="priority"/>
    <node id="3128805248" x="2898.56" y="2475.79" type="priority"/>
    <node id="3128805257" x="2849.29" y="2272.47" type="priority"/>
    <node id="3128805262" x="2749.58" y="2332.01" type="priority"/>
    <node id="3128805263" x="2845.33" y="2508.58" type="priority"/>
    <node id="3128805264" x="2680.22" y="2409.76" type="priority"/>
    <node id="3128805271" x="2861.51" y="2498.61" type="priority"/>
    <node id="3128805280" x="3036.08" y="2455.09" type="priority"/>
    <node id="3128805315" x="2861.76" y="2653.39" type="priority"/>
    <node id="3128805317" x="3528.63" y="1988.62" type="priority"/>
    <node id="3128805326" x="2881.02" y="2486.58" type="priority"/>
    <node id="3128805328" x="2732.20" y="2343.28" type="priority"/>
    <node id="3128805430" x="2767.22" y="2320.56" type="priority"/>
    <node id="3128805448" x="2185.72" y="2866.90" type="priority"/>
    <node id="3128820142" x="2212.94" y="3468.93" type="priority"/>
    <node id="3128822032" x="3081.67" y="2933.63" type="priority"/>
    <node id="3215887093" x="3152.50" y="2194.95" type="priority"/>
    <node id="3238607342" x="2343.82" y="2670.26" type="priority"/>
    <node id="3238607343" x="2334.89" y="2677.59" type="priority"/>
    <node id="3932969906" x="3221.56" y="2963.04" type="priority"/>
    <node id="3932969907" x="3184.59" y="3028.83" type="dead_end"/>
    <node id="4865190150" x="3556.86" y="2038.24" type="dead_end"/>
    <node id="4865190153" x="3566.99" y="2059.16" type="dead_end"/>
    <node id="4865190155" x="3531.88" y="2056.68" type="priority"/>
    <node id="4876460017" x="3116.84" y="1693.29" type="priority"/>
    <node id="4876460928" x="2296.99" y="2626.80" type="priority"/>
    <node id="4876460932" x="2259.49" y="2690.53" type="priority"/>
    <node id="4876499436" x="3343.36" y="2018.67" type="priority"/>
    <node id="4876499440" x="2885.51" y="1944.51" type="priority"/>
    <node id="4876499455" x="3298.08" y="2044.26" type="priority"/>
    <node id="4876499465" x="2877.30" y="1635.22" type="priority"/>
    <node id="822267535" x="479.21" y="3901.10" type="dead_end"/>
    <node id="822303241" x="1883.68" y="2954.84" type="dead_end"/>
    <node id="822309636" x="2037.11" y="3020.95" type="dead_end"/>
    <node id="822311533" x="2059.71" y="1594.73" type="priority"/>
    <node id="822957930" x="10852.45" y="13.01" type="dead_end"/>
    <node id="824827025" x="4040.66" y="4221.68" type="dead_end"/>
    <node id="838148719" x="1874.22" y="1064.02" type="dead_end"/>
    <node id="893214260" x="6070.74" y="4963.55" type="dead_end"/>
    <node id="94694796" x="10986.59" y="0.00" type="dead_end"/>
</nodes>
