<?xml version="1.0" encoding="UTF-8"?>

<!-- generated on 16/05/2018 14:07:45 by Netedit Version 0.32.0
<?xml version="1.0" encoding="UTF-8"?>

<configuration xmlns:xsi="http://www.w3.org/2001/XMLSchema-instance" xsi:noNamespaceSchemaLocation="http://sumo.dlr.de/xsd/netconvertConfiguration.xsd">

    <input>
        <sumo-net-file value="C:\Users\Abel\Documents\School\Year%202\Project%202-2\MapXmls\Turbine\Turbine1.net.xml"/>
    </input>

    <output>
        <output-file value="C:\Users\Abel\Documents\School\Year%202\Project%202-2\MapXmls\Turbine\Turbine1.net.xml"/>
        <plain-output-prefix value="C:\Users\Abel\Documents\School\Year%202\Project%202-2\MapXmls\Turbine\TurbineInterchange1"/>
    </output>

    <processing>
        <no-turnarounds value="true"/>
        <offset.disable-normalization value="true"/>
        <lefthand value="false"/>
        <junctions.corner-detail value="0"/>
        <rectangular-lane-cut value="false"/>
        <walkingareas value="false"/>
    </processing>

</configuration>
-->

<edges version="0.27" xmlns:xsi="http://www.w3.org/2001/XMLSchema-instance" xsi:noNamespaceSchemaLocation="http://sumo.dlr.de/xsd/edges_file.xsd">
    <edge id="-205659782" from="4876499436" to="4876460017" priority="5" type="highway.unclassified" numLanes="1" speed="13.89" shape="3343.36,2018.67 3326.22,1990.96 3272.06,1910.19 3216.81,1831.71 3161.06,1746.63 3116.84,1693.29" disallow="tram rail_urban rail rail_electric ship"/>
    <edge id="-209219313" from="2194490767" to="2194490703" priority="4" type="highway.residential" numLanes="1" speed="13.89" shape="2369.92,2797.75 2412.56,2859.04 2466.64,2936.74 2497.26,2980.72 2524.92,3020.49 2579.86,3099.43" disallow="tram rail_urban rail rail_electric ship"/>
    <edge id="-209223770" from="2194532275" to="2194532363" priority="4" type="highway.residential" numLanes="1" speed="13.89" shape="2618.96,2878.00 2569.24,2927.17 2567.49,2939.81 2504.60,2850.20 2500.43,2838.96 2502.49,2830.08 2507.56,2822.34 2616.97,2736.12" disallow="tram rail_urban rail rail_electric ship"/>
    <edge id="-209223772" from="2194532288" to="2194532325" priority="4" type="highway.residential" numLanes="1" speed="13.89" disallow="tram rail_urban rail rail_electric ship"/>
    <edge id="-209223773#0" from="2194532285" to="2194532299" priority="4" type="highway.residential" numLanes="1" speed="13.89" disallow="tram rail_urban rail rail_electric ship"/>
    <edge id="-209223773#1" from="2194532358" to="2194532285" priority="4" type="highway.residential" numLanes="1" speed="13.89" disallow="tram rail_urban rail rail_electric ship"/>
    <edge id="-209223773#2" from="2194532331" to="2194532358" priority="4" type="highway.residential" numLanes="1" speed="13.89" disallow="tram rail_urban rail rail_electric ship"/>
    <edge id="-209223778" from="2194532321" to="2194532285" priority="4" type="highway.residential" numLanes="1" speed="13.89" disallow="tram rail_urban rail rail_electric ship"/>
    <edge id="-209223779#0" from="2194532333" to="2194532302" priority="4" type="highway.residential" numLanes="1" speed="13.89" disallow="tram rail_urban rail rail_electric ship"/>
    <edge id="-209223779#1" from="2194532315" to="2194532333" priority="4" type="highway.residential" numLanes="1" speed="13.89" shape="2895.75,2815.21 2965.22,2916.46 2966.92,2922.61 2965.62,2927.19 2963.22,2930.44 2897.83,2972.54 2853.38,2908.73 2784.89,2810.42" disallow="tram rail_urban rail rail_electric ship"/>
    <edge id="-209223779#2" from="2194532340" to="2194532315" priority="4" type="highway.residential" numLanes="1" speed="13.89" disallow="tram rail_urban rail rail_electric ship"/>
    <edge id="-209223784" from="1193462675" to="2194532315" priority="4" type="highway.residential" numLanes="1" speed="13.89" shape="2967.55,2764.53 2928.27,2791.99 2895.75,2815.21" disallow="tram rail_urban rail rail_electric ship"/>
    <edge id="-209223785" from="2194532358" to="2194532337" priority="4" type="highway.residential" numLanes="1" speed="13.89" disallow="tram rail_urban rail rail_electric ship"/>
    <edge id="-209223787#0" from="2194532275" to="2194532346" priority="4" type="highway.residential" numLanes="1" speed="13.89" shape="2618.96,2878.00 2664.98,2943.15 2681.22,2967.23 2689.74,2983.69 2703.89,3006.17 2745.58,3072.42 2754.29,3076.22 2766.96,3074.73 2855.89,3011.94" disallow="tram rail_urban rail rail_electric ship"/>
    <edge id="-209223787#1" from="2194532288" to="2194532275" priority="4" type="highway.residential" numLanes="1" speed="13.89" shape="2663.96,2799.24 2610.08,2839.15 2605.87,2848.87 2605.97,2857.47 2610.12,2865.47 2618.96,2878.00" disallow="tram rail_urban rail rail_electric ship"/>
    <edge id="-209223787#2" from="2194532302" to="2194532288" priority="4" type="highway.residential" numLanes="1" speed="13.89" disallow="tram rail_urban rail rail_electric ship"/>
    <edge id="-209223787#3" from="2194532282" to="2194532302" priority="4" type="highway.residential" numLanes="1" speed="13.89" disallow="tram rail_urban rail rail_electric ship"/>
    <edge id="-209309325" from="2195360752" to="2195361072" priority="1" type="highway.track" numLanes="1" speed="5.56" shape="3249.72,2960.11 3567.95,2759.21 3522.82,2685.61 3518.10,2650.22 3506.38,2614.34 3494.82,2595.13 3478.83,2566.31 3468.45,2556.23 3450.95,2548.07 3434.75,2548.80 3413.33,2564.08 3310.02,2633.23 3291.51,2619.47" disallow="tram rail_urban rail rail_electric ship"/>
    <edge id="-209309350" from="2195360795" to="2195361047" priority="1" type="highway.track" numLanes="1" speed="5.56" disallow="tram rail_urban rail rail_electric ship"/>
    <edge id="-209309362" from="2195360400" to="2195360841" priority="1" type="highway.track" numLanes="1" speed="5.56" shape="3204.39,2500.78 3173.79,2585.08 3139.64,2611.57" disallow="tram rail_urban rail rail_electric ship"/>
    <edge id="-209309376" from="2195360891" to="2195360842" priority="1" type="highway.track" numLanes="1" speed="5.56" disallow="tram rail_urban rail rail_electric ship"/>
    <edge id="-209309380#0" from="2195360842" to="2195360495" priority="1" type="highway.track" numLanes="1" speed="5.56" disallow="tram rail_urban rail rail_electric ship"/>
    <edge id="-209309380#1" from="1193454928" to="2195360842" priority="1" type="highway.track" numLanes="1" speed="5.56" shape="3211.17,2901.84 3269.98,2864.65 3214.61,2792.51" disallow="tram rail_urban rail rail_electric ship"/>
    <edge id="-209309384#0" from="2195360841" to="2195360391" priority="1" type="highway.track" numLanes="1" speed="5.56" shape="3139.64,2611.57 3113.33,2575.86 3076.36,2554.26" disallow="tram rail_urban rail rail_electric ship"/>
    <edge id="-209309384#1" from="2195360795" to="2195360841" priority="1" type="highway.track" numLanes="1" speed="5.56" shape="3181.51,2664.89 3173.20,2663.79 3139.64,2611.57" disallow="tram rail_urban rail rail_electric ship"/>
    <edge id="-209309384#2" from="2195361072" to="2195360795" priority="1" type="highway.track" numLanes="1" speed="5.56" shape="3291.51,2619.47 3193.62,2666.48 3181.51,2664.89" disallow="tram rail_urban rail rail_electric ship"/>
    <edge id="-209309384#3" from="2195361047" to="2195361072" priority="1" type="highway.track" numLanes="1" speed="5.56" disallow="tram rail_urban rail rail_electric ship"/>
    <edge id="-209309384#4" from="2195360495" to="2195361047" priority="1" type="highway.track" numLanes="1" speed="5.56" shape="3205.03,2757.99 3219.92,2737.40 3216.41,2713.81" disallow="tram rail_urban rail rail_electric ship"/>
    <edge id="-209309384#5" from="2195360891" to="2195360495" priority="1" type="highway.track" numLanes="1" speed="5.56" shape="3171.17,2818.52 3163.23,2785.32 3205.03,2757.99" disallow="tram rail_urban rail rail_electric ship"/>
    <edge id="-210384903" from="2204604086" to="2204604031" priority="4" type="highway.residential" numLanes="1" speed="13.89" disallow="tram rail_urban rail rail_electric ship"/>
    <edge id="-210384932#0" from="2204673730" to="3128376607" priority="4" type="highway.residential" numLanes="1" speed="13.89" shape="2501.13,2577.64 2517.72,2564.60 2563.01,2527.31" disallow="tram rail_urban rail rail_electric ship"/>
    <edge id="-210384932#1" from="2204747015" to="2204673730" priority="4" type="highway.residential" numLanes="1" speed="13.89" shape="2478.51,2596.61 2491.64,2586.05 2501.13,2577.64" disallow="tram rail_urban rail rail_electric ship"/>
    <edge id="-210384932#10" from="2204604027" to="2204673595" priority="4" type="highway.residential" numLanes="1" speed="13.89" shape="1993.02,2972.47 1996.99,2966.24 1996.52,2956.74 2003.14,2960.53 2008.49,2960.96 2017.05,2958.78 2037.26,2942.25 2057.40,2926.12 2108.81,2886.64 2136.84,2863.89" disallow="tram rail_urban rail rail_electric ship"/>
    <edge id="-210384932#2" from="2204747062" to="2204747015" priority="4" type="highway.residential" numLanes="1" speed="13.89" disallow="tram rail_urban rail rail_electric ship"/>
    <edge id="-210384932#3" from="3128376717" to="2204747062" priority="4" type="highway.residential" numLanes="1" speed="13.89" disallow="tram rail_urban rail rail_electric ship"/>
    <edge id="-210384932#4" from="2204747061" to="3128376717" priority="4" type="highway.residential" numLanes="1" speed="13.89" disallow="tram rail_urban rail rail_electric ship"/>
    <edge id="-210384932#5" from="2204746973" to="2204747061" priority="4" type="highway.residential" numLanes="1" speed="13.89" disallow="tram rail_urban rail rail_electric ship"/>
    <edge id="-210384932#6" from="3128376419" to="2204746973" priority="4" type="highway.residential" numLanes="1" speed="13.89" disallow="tram rail_urban rail rail_electric ship"/>
    <edge id="-210384932#7" from="2204673557" to="3128376419" priority="4" type="highway.residential" numLanes="1" speed="13.89" shape="2229.96,2789.28 2262.02,2764.04 2293.79,2740.28" disallow="tram rail_urban rail rail_electric ship"/>
    <edge id="-210384932#8" from="2204603995" to="2204673557" priority="4" type="highway.residential" numLanes="1" speed="13.89" disallow="tram rail_urban rail rail_electric ship"/>
    <edge id="-210384932#9" from="2204673595" to="2204603995" priority="4" type="highway.residential" numLanes="1" speed="13.89" shape="2136.84,2863.89 2153.13,2851.49 2169.23,2838.13" disallow="tram rail_urban rail rail_electric ship"/>
    <edge id="-210384952#0" from="4876460932" to="3128376419" priority="4" type="highway.residential" numLanes="1" speed="13.89" disallow="tram rail_urban rail rail_electric ship"/>
    <edge id="-210384952#1" from="2204673787" to="4876460932" priority="4" type="highway.residential" numLanes="1" speed="13.89" disallow="tram rail_urban rail rail_electric ship"/>
    <edge id="-210384952#2" from="2204673576" to="2204673787" priority="4" type="highway.residential" numLanes="1" speed="13.89" disallow="tram rail_urban rail rail_electric ship"/>
    <edge id="-210384952#3" from="2204604049" to="2204673576" priority="4" type="highway.residential" numLanes="1" speed="13.89" disallow="tram rail_urban rail rail_electric ship"/>
    <edge id="-210384952#4" from="2204604086" to="2204604049" priority="4" type="highway.residential" numLanes="1" speed="13.89" disallow="tram rail_urban rail rail_electric ship"/>
    <edge id="-210384952#5" from="2204603971" to="2204604086" priority="4" type="highway.residential" numLanes="1" speed="13.89" shape="1944.18,2234.44 1989.23,2300.06 2016.50,2339.79" disallow="tram rail_urban rail rail_electric ship"/>
    <edge id="-210384953#0" from="2204604032" to="2204604011" priority="4" type="highway.residential" numLanes="1" speed="13.89" shape="2112.78,2759.11 2071.02,2697.02 2046.53,2661.26 1955.30,2528.08 1949.18,2519.15" disallow="tram rail_urban rail rail_electric ship"/>
    <edge id="-210384953#1" from="2204603995" to="2204604032" priority="4" type="highway.residential" numLanes="1" speed="13.89" disallow="tram rail_urban rail rail_electric ship"/>
    <edge id="-210392894#0" from="2204673951" to="2204673805" priority="2" type="highway.service" numLanes="1" speed="5.56" allow="delivery bicycle pedestrian"/>
    <edge id="-210392894#1" from="2204673879" to="2204673951" priority="2" type="highway.service" numLanes="1" speed="5.56" allow="delivery bicycle pedestrian"/>
    <edge id="-210392904#0" from="2204673963" to="2204673995" priority="4" type="highway.residential" numLanes="1" speed="13.89" shape="2082.13,2044.07 2038.19,1979.85 2014.03,1944.94 1948.32,1989.15" disallow="tram rail_urban rail rail_electric ship"/>
    <edge id="-210392904#1" from="2204673615" to="2204673963" priority="4" type="highway.residential" numLanes="1" speed="13.89" disallow="tram rail_urban rail rail_electric ship"/>
    <edge id="-210392906" from="2204673973" to="2204673838" priority="4" type="highway.residential" numLanes="1" speed="13.89" disallow="tram rail_urban rail rail_electric ship"/>
    <edge id="-210392908" from="2204673743" to="2204673948" priority="4" type="highway.residential" numLanes="1" speed="13.89" disallow="tram rail_urban rail rail_electric ship"/>
    <edge id="-210392910" from="2204673663" to="2204673541" priority="4" type="highway.residential" numLanes="1" speed="13.89" disallow="tram rail_urban rail rail_electric ship"/>
    <edge id="-210392917#0" from="2204673645" to="2204673560" priority="4" type="highway.residential" numLanes="1" speed="13.89" disallow="tram rail_urban rail rail_electric ship"/>
    <edge id="-210392917#1" from="2204673775" to="2204673645" priority="4" type="highway.residential" numLanes="1" speed="13.89" disallow="tram rail_urban rail rail_electric ship"/>
    <edge id="-210392917#2" from="2204673913" to="2204673775" priority="4" type="highway.residential" numLanes="1" speed="13.89" disallow="tram rail_urban rail rail_electric ship"/>
    <edge id="-210392917#3" from="2204708863" to="2204673913" priority="4" type="highway.residential" numLanes="1" speed="13.89" disallow="tram rail_urban rail rail_electric ship"/>
    <edge id="-210392918#0" from="2204673999" to="2204673954" priority="4" type="highway.residential" numLanes="1" speed="13.89" disallow="tram rail_urban rail rail_electric ship"/>
    <edge id="-210392918#1" from="2204673727" to="2204673999" priority="4" type="highway.residential" numLanes="1" speed="13.89" disallow="tram rail_urban rail rail_electric ship"/>
    <edge id="-210392936#0" from="2204673572" to="2204673928" priority="4" type="highway.residential" numLanes="1" speed="13.89" disallow="tram rail_urban rail rail_electric ship"/>
    <edge id="-210392936#1" from="2204708771" to="2204673572" priority="4" type="highway.residential" numLanes="1" speed="13.89" shape="2538.10,2324.52 2525.00,2333.44 2471.47,2369.89" disallow="tram rail_urban rail rail_electric ship"/>
    <edge id="-210392936#2" from="2204673836" to="2204708771" priority="4" type="highway.residential" numLanes="1" speed="13.89" disallow="tram rail_urban rail rail_electric ship"/>
    <edge id="-210392941#0" from="2204673979" to="2204673963" priority="4" type="highway.residential" numLanes="1" speed="13.89" disallow="tram rail_urban rail rail_electric ship"/>
    <edge id="-210392941#1" from="2204673700" to="2204673979" priority="4" type="highway.residential" numLanes="1" speed="13.89" disallow="tram rail_urban rail rail_electric ship"/>
    <edge id="-210392944#0" from="2204758318" to="2204673524" priority="4" type="highway.residential" numLanes="1" speed="13.89" disallow="tram rail_urban rail rail_electric ship"/>
    <edge id="-210392944#1" from="2204673694" to="2204758318" priority="4" type="highway.residential" numLanes="1" speed="13.89" disallow="tram rail_urban rail rail_electric ship"/>
    <edge id="-210392944#2" from="2204673826" to="2204673694" priority="4" type="highway.residential" numLanes="1" speed="13.89" disallow="tram rail_urban rail rail_electric ship"/>
    <edge id="-210392947#0" from="2204673890" to="2204604032" priority="4" type="highway.residential" numLanes="1" speed="13.89" disallow="tram rail_urban rail rail_electric ship"/>
    <edge id="-210392947#1" from="2204673787" to="2204673890" priority="4" type="highway.residential" numLanes="1" speed="13.89" disallow="tram rail_urban rail rail_electric ship"/>
    <edge id="-210392949" from="2204673730" to="2204673775" priority="4" type="highway.residential" numLanes="1" speed="13.89" disallow="tram rail_urban rail rail_electric ship"/>
    <edge id="-210392951" from="2204673576" to="2204673562" priority="4" type="highway.residential" numLanes="1" speed="13.89" disallow="tram rail_urban rail rail_electric ship"/>
    <edge id="-210392960#0" from="2204758340" to="2204673989" priority="4" type="highway.residential" numLanes="1" speed="13.89" disallow="tram rail_urban rail rail_electric ship"/>
    <edge id="-210392960#1" from="2204673696" to="2204758340" priority="4" type="highway.residential" numLanes="1" speed="13.89" disallow="tram rail_urban rail rail_electric ship"/>
    <edge id="-210392960#2" from="2204673615" to="2204673696" priority="4" type="highway.residential" numLanes="1" speed="13.89" disallow="tram rail_urban rail rail_electric ship"/>
    <edge id="-210392960#3" from="2204673712" to="2204673615" priority="4" type="highway.residential" numLanes="1" speed="13.89" disallow="tram rail_urban rail rail_electric ship"/>
    <edge id="-210392966" from="2204673783" to="2204604049" priority="4" type="highway.residential" numLanes="1" speed="13.89" disallow="tram rail_urban rail rail_electric ship"/>
    <edge id="-210392968" from="2204673595" to="2204673951" priority="2" type="highway.service" numLanes="1" speed="5.56" allow="delivery bicycle pedestrian"/>
    <edge id="-210392971" from="2204673557" to="2204673999" priority="4" type="highway.residential" numLanes="1" speed="13.89" disallow="tram rail_urban rail rail_electric ship"/>
    <edge id="-210393657#0" from="2204673562" to="2204604082" priority="4" type="highway.residential" numLanes="1" speed="13.89" disallow="tram rail_urban rail rail_electric ship"/>
    <edge id="-210393657#1" from="2204673890" to="2204673562" priority="4" type="highway.residential" numLanes="1" speed="13.89" disallow="tram rail_urban rail rail_electric ship"/>
    <edge id="-210395997" from="2204708664" to="2204708771" priority="2" type="highway.service" numLanes="1" speed="5.56" shape="2586.59,2394.70 2544.06,2333.72 2538.10,2324.52" allow="delivery bicycle pedestrian"/>
    <edge id="-210396019#0" from="2204673928" to="2204673645" priority="4" type="highway.residential" numLanes="1" speed="13.89" disallow="tram rail_urban rail rail_electric ship"/>
    <edge id="-210396019#1" from="2204673838" to="2204673928" priority="4" type="highway.residential" numLanes="1" speed="13.89" disallow="tram rail_urban rail rail_electric ship"/>
    <edge id="-210396019#2" from="2204673721" to="2204673838" priority="4" type="highway.residential" numLanes="1" speed="13.89" disallow="tram rail_urban rail rail_electric ship"/>
    <edge id="-210396019#3" from="2204673948" to="2204673721" priority="4" type="highway.residential" numLanes="1" speed="13.89" disallow="tram rail_urban rail rail_electric ship"/>
    <edge id="-210396019#4" from="2204673663" to="2204673948" priority="4" type="highway.residential" numLanes="1" speed="13.89" disallow="tram rail_urban rail rail_electric ship"/>
    <edge id="-210396019#5" from="2204673694" to="2204673663" priority="4" type="highway.residential" numLanes="1" speed="13.89" disallow="tram rail_urban rail rail_electric ship"/>
    <edge id="-210396030#0" from="2204673995" to="2204604054" priority="4" type="highway.residential" numLanes="1" speed="13.89" shape="1948.32,1989.15 1911.12,1934.42 1878.70,1887.47 1835.45,1824.90" disallow="tram rail_urban rail rail_electric ship"/>
    <edge id="-210396030#1" from="2204673712" to="2204673995" priority="4" type="highway.residential" numLanes="1" speed="13.89" shape="2060.78,2154.19 2032.97,2113.64 1982.35,2039.19 1950.39,1992.19 1948.32,1989.15" disallow="tram rail_urban rail rail_electric ship"/>
    <edge id="-210396030#2" from="2204673826" to="2204673712" priority="4" type="highway.residential" numLanes="1" speed="13.89" disallow="tram rail_urban rail rail_electric ship"/>
    <edge id="-210396030#3" from="2204604031" to="2204673826" priority="4" type="highway.residential" numLanes="1" speed="13.89" disallow="tram rail_urban rail rail_electric ship"/>
    <edge id="-210396030#4" from="2204673783" to="2204604031" priority="4" type="highway.residential" numLanes="1" speed="13.89" disallow="tram rail_urban rail rail_electric ship"/>
    <edge id="-210396030#5" from="2204673704" to="2204673783" priority="4" type="highway.residential" numLanes="1" speed="13.89" disallow="tram rail_urban rail rail_electric ship"/>
    <edge id="-210396030#6" from="2204673560" to="2204673704" priority="4" type="highway.residential" numLanes="1" speed="13.89" shape="2350.57,2576.10 2350.45,2575.92 2217.09,2381.88" disallow="tram rail_urban rail rail_electric ship"/>
    <edge id="-210396030#7" from="3128376717" to="2204673560" priority="4" type="highway.residential" numLanes="1" speed="13.89" disallow="tram rail_urban rail rail_electric ship"/>
    <edge id="-210396032" from="2204673704" to="2204673721" priority="4" type="highway.residential" numLanes="1" speed="13.89" disallow="tram rail_urban rail rail_electric ship"/>
    <edge id="-210399950" from="2204746966" to="2204746960" priority="4" type="highway.residential" numLanes="1" speed="13.89" disallow="tram rail_urban rail rail_electric ship"/>
    <edge id="-210399956" from="3128376607" to="2204747024" priority="4" type="highway.residential" numLanes="1" speed="13.89" disallow="tram rail_urban rail rail_electric ship"/>
    <edge id="-210399959" from="2204747062" to="2204747000" priority="4" type="highway.residential" numLanes="1" speed="13.89" disallow="tram rail_urban rail rail_electric ship"/>
    <edge id="-210399964#0" from="2204747000" to="2204747060" priority="4" type="highway.residential" numLanes="1" speed="13.89" disallow="tram rail_urban rail rail_electric ship"/>
    <edge id="-210399964#1" from="2204747055" to="2204747000" priority="4" type="highway.residential" numLanes="1" speed="13.89" shape="2452.70,2583.97 2457.36,2590.08 2420.97,2618.46" disallow="tram rail_urban rail rail_electric ship"/>
    <edge id="-210399971#0" from="2204747024" to="2204747059" priority="4" type="highway.residential" numLanes="1" speed="13.89" disallow="tram rail_urban rail rail_electric ship"/>
    <edge id="-210399971#1" from="2204758350" to="2204747024" priority="4" type="highway.residential" numLanes="1" speed="13.89" disallow="tram rail_urban rail rail_electric ship"/>
    <edge id="-210399971#2" from="2204747051" to="2204758350" priority="4" type="highway.residential" numLanes="1" speed="13.89" shape="2596.67,2493.45 2592.01,2487.33 2564.44,2508.93" disallow="tram rail_urban rail rail_electric ship"/>
    <edge id="-210399972#0" from="2204747016" to="2204746963" priority="2" type="highway.service" numLanes="1" speed="5.56" allow="delivery bicycle pedestrian"/>
    <edge id="-210399972#1" from="2204747046" to="2204747016" priority="2" type="highway.service" numLanes="1" speed="5.56" shape="2208.23,2474.91 2199.65,2461.49 2217.33,2449.75 2226.39,2462.80" allow="delivery bicycle pedestrian"/>
    <edge id="-210399974#0" from="2204746960" to="2204746961" priority="4" type="highway.residential" numLanes="1" speed="13.89" disallow="tram rail_urban rail rail_electric ship"/>
    <edge id="-210399974#1" from="2204747015" to="2204746960" priority="4" type="highway.residential" numLanes="1" speed="13.89" shape="2478.51,2596.61 2466.73,2581.96 2471.15,2578.60" disallow="tram rail_urban rail rail_electric ship"/>
    <edge id="-210399975#0" from="2204746963" to="2204746993" priority="2" type="highway.service" numLanes="1" speed="5.56" allow="delivery bicycle pedestrian"/>
    <edge id="-210399975#1" from="2204747044" to="2204746963" priority="2" type="highway.service" numLanes="1" speed="5.56" allow="delivery bicycle pedestrian"/>
    <edge id="-210399977#0" from="2204747046" to="2204747016" priority="2" type="highway.service" numLanes="1" speed="5.56" allow="delivery bicycle pedestrian"/>
    <edge id="-210399977#1" from="2204746993" to="2204747046" priority="2" type="highway.service" numLanes="1" speed="5.56" shape="2183.52,2515.12 2172.26,2498.87 2208.23,2474.91" allow="delivery bicycle pedestrian"/>
    <edge id="-210399977#2" from="2204746977" to="2204746993" priority="2" type="highway.service" numLanes="1" speed="5.56" shape="2251.36,2591.15 2243.55,2592.84 2235.95,2589.71 2230.48,2583.86 2183.52,2515.12" allow="delivery bicycle pedestrian"/>
    <edge id="-210400548#0" from="2204758328" to="2204758346" priority="2" type="highway.service" numLanes="1" speed="5.56" allow="delivery bicycle pedestrian"/>
    <edge id="-210400548#1" from="2204758330" to="2204758328" priority="2" type="highway.service" numLanes="1" speed="5.56" allow="delivery bicycle pedestrian"/>
    <edge id="-210400549" from="2204758350" to="2204758328" priority="2" type="highway.service" numLanes="1" speed="5.56" shape="2564.44,2508.93 2557.60,2500.88 2549.97,2491.62" allow="delivery bicycle pedestrian"/>
    <edge id="-210400551" from="2204758318" to="2204758340" priority="4" type="highway.residential" numLanes="1" speed="13.89" disallow="tram rail_urban rail rail_electric ship"/>
    <edge id="-210401095#0" from="2204774371" to="2204774372" priority="5" type="highway.unclassified" numLanes="1" speed="13.89" disallow="tram rail_urban rail rail_electric ship"/>
    <edge id="-210401095#1" from="2204774395" to="2204774371" priority="5" type="highway.unclassified" numLanes="1" speed="13.89" disallow="tram rail_urban rail rail_electric ship"/>
    <edge id="-210401100" from="2204774398" to="2204774371" priority="5" type="highway.unclassified" numLanes="1" speed="13.89" disallow="tram rail_urban rail rail_electric ship"/>
    <edge id="-210588830#0" from="2206677325" to="2206676963" priority="2" type="highway.service" numLanes="1" speed="5.56" allow="delivery bicycle pedestrian"/>
    <edge id="-210588830#1" from="2206677506" to="2206677325" priority="2" type="highway.service" numLanes="1" speed="5.56" allow="delivery bicycle pedestrian"/>
    <edge id="-210588830#2" from="2206677305" to="2206677506" priority="2" type="highway.service" numLanes="1" speed="5.56" shape="3049.40,2149.41 3056.46,2136.63 3046.97,2118.67" allow="delivery bicycle pedestrian"/>
    <edge id="-210588830#3" from="2206677197" to="2206677305" priority="2" type="highway.service" numLanes="1" speed="5.56" allow="delivery bicycle pedestrian"/>
    <edge id="-210588830#4" from="2206677380" to="2206677197" priority="2" type="highway.service" numLanes="1" speed="5.56" shape="3175.01,2082.45 3171.49,2088.58 3133.93,2110.50 3131.70,2120.01 3066.44,2158.54" allow="delivery bicycle pedestrian"/>
    <edge id="-210588831" from="2206677380" to="2206677098" priority="2" type="highway.service" numLanes="1" speed="5.56" allow="delivery bicycle pedestrian"/>
    <edge id="-210588834" from="2206677474" to="2206677458" priority="2" type="highway.service" numLanes="1" speed="5.56" shape="2770.88,2099.08 2762.13,2088.44 2776.04,2077.53 2785.36,2089.24" allow="delivery bicycle pedestrian"/>
    <edge id="-210588841#0" from="2206677337" to="2206677228" priority="2" type="highway.service" numLanes="1" speed="5.56" allow="delivery bicycle pedestrian"/>
    <edge id="-210588841#1" from="2206677068" to="2206677337" priority="2" type="highway.service" numLanes="1" speed="5.56" allow="delivery bicycle pedestrian"/>
    <edge id="-210588841#2" from="2206677444" to="2206677068" priority="2" type="highway.service" numLanes="1" speed="5.56" shape="2939.42,1961.26 2924.82,1963.84 2955.79,2007.03" allow="delivery bicycle pedestrian"/>
    <edge id="-210588841#3" from="2206677068" to="2206677444" priority="2" type="highway.service" numLanes="1" speed="5.56" shape="2955.79,2007.03 2957.79,1989.22 2939.42,1961.26" allow="delivery bicycle pedestrian"/>
    <edge id="-210588842#0" from="2206677267" to="2206677431" priority="2" type="highway.service" numLanes="1" speed="5.56" allow="delivery bicycle pedestrian"/>
    <edge id="-210588842#1" from="2206677377" to="2206677267" priority="2" type="highway.service" numLanes="1" speed="5.56" allow="delivery bicycle pedestrian"/>
    <edge id="-210588842#2" from="2206677098" to="2206677377" priority="2" type="highway.service" numLanes="1" speed="5.56" allow="delivery bicycle pedestrian"/>
    <edge id="-210588842#3" from="2206677082" to="2206677098" priority="2" type="highway.service" numLanes="1" speed="5.56" allow="delivery bicycle pedestrian"/>
    <edge id="-210588842#4" from="2206677318" to="2206677082" priority="2" type="highway.service" numLanes="1" speed="5.56" shape="3129.09,2081.36 3137.49,2090.58 3155.17,2078.03" allow="delivery bicycle pedestrian"/>
    <edge id="-210588845" from="2206677421" to="2206677082" priority="2" type="highway.service" numLanes="1" speed="5.56" allow="delivery bicycle pedestrian"/>
    <edge id="-210588848#0" from="2206677337" to="2206677163" priority="2" type="highway.service" numLanes="1" speed="5.56" shape="2967.12,2023.82 3023.75,1982.41 3078.34,1944.92" allow="delivery bicycle pedestrian"/>
    <edge id="-210588848#1" from="2206677375" to="2206677337" priority="2" type="highway.service" numLanes="1" speed="5.56" shape="2993.65,2090.97 2953.75,2033.60 2967.12,2023.82" allow="delivery bicycle pedestrian"/>
    <edge id="-210588848#2" from="2206677280" to="2206677375" priority="2" type="highway.service" numLanes="1" speed="5.56" shape="2986.44,2151.93 2985.15,2134.75 2993.65,2090.97" allow="delivery bicycle pedestrian"/>
    <edge id="-210588851#0" from="2206677228" to="2206677375" priority="2" type="highway.service" numLanes="1" speed="5.56" allow="delivery bicycle pedestrian"/>