<?xml version="1.0" encoding="UTF-8"?>

<!-- generated on 16/05/2018 14:07:45 by Netedit Version 0.32.0
<?xml version="1.0" encoding="UTF-8"?>

<configuration xmlns:xsi="http://www.w3.org/2001/XMLSchema-instance" xsi:noNamespaceSchemaLocation="http://sumo.dlr.de/xsd/netconvertConfiguration.xsd">

    <input>
        <sumo-net-file value="C:\Users\Abel\Documents\School\Year%202\Project%202-2\MapXmls\Turbine\Turbine1.net.xml"/>
    </input>

    <output>
        <output-file value="C:\Users\Abel\Documents\School\Year%202\Project%202-2\MapXmls\Turbine\Turbine1.net.xml"/>
        <plain-output-prefix value="C:\Users\Abel\Documents\School\Year%202\Project%202-2\MapXmls\Turbine\TurbineInterchange1"/>
    </output>

    <processing>
        <no-turnarounds value="true"/>
        <offset.disable-normalization value="true"/>
        <lefthand value="false"/>
        <junctions.corner-detail value="0"/>
        <rectangular-lane-cut value="false"/>
        <walkingareas value="false"/>
    </processing>

</configuration>
-->

<connections version="0.27" xmlns:xsi="http://www.w3.org/2001/XMLSchema-instance" xsi:noNamespaceSchemaLocation="http://sumo.dlr.de/xsd/connections_file.xsd">
    <connection from="-205659782" to="205659782" fromLane="0" toLane="0"/>

    <connection from="-209219313" to="209219313" fromLane="0" toLane="0"/>

    <connection from="-209223770" to="307639536#1" fromLane="0" toLane="0"/>
    <connection from="-209223770" to="-307639536#0" fromLane="0" toLane="0"/>
    <connection from="-209223770" to="209223770" fromLane="0" toLane="0"/>

    <connection from="-209223772" to="495957385#1" fromLane="0" toLane="0"/>
    <connection from="-209223772" to="-495957385#0" fromLane="0" toLane="0"/>
    <connection from="-209223772" to="209223772" fromLane="0" toLane="0"/>

    <connection from="-209223773#0" to="209223773#0" fromLane="0" toLane="0"/>

    <connection from="-209223773#1" to="209223778" fromLane="0" toLane="0"/>
    <connection from="-209223773#1" to="-209223773#0" fromLane="0" toLane="0"/>
    <connection from="-209223773#1" to="209223773#1" fromLane="0" toLane="0"/>

    <connection from="-209223773#2" to="-209223785" fromLane="0" toLane="0"/>
    <connection from="-209223773#2" to="-209223773#1" fromLane="0" toLane="0"/>
    <connection from="-209223773#2" to="209223773#2" fromLane="0" toLane="0"/>

    <connection from="-209223778" to="-209223773#0" fromLane="0" toLane="0"/>
    <connection from="-209223778" to="209223773#1" fromLane="0" toLane="0"/>
    <connection from="-209223778" to="209223778" fromLane="0" toLane="0"/>

    <connection from="-209223779#0" to="-209223787#2" fromLane="0" toLane="0"/>
    <connection from="-209223779#0" to="209223787#3" fromLane="0" toLane="0"/>
    <connection from="-209223779#0" to="209223779#0" fromLane="0" toLane="0"/>

    <connection from="-209223779#1" to="-495957385#1" fromLane="0" toLane="0"/>
    <connection from="-209223779#1" to="-209223779#0" fromLane="0" toLane="0"/>
    <connection from="-209223779#1" to="209223779#1" fromLane="0" toLane="0"/>

    <connection from="-209223779#2" to="209223784" fromLane="0" toLane="0"/>
    <connection from="-209223779#2" to="-209223779#1" fromLane="0" toLane="0"/>
    <connection from="-209223779#2" to="209223779#2" fromLane="0" toLane="0"/>

    <connection from="-209223784" to="-209223779#1" fromLane="0" toLane="0"/>
    <connection from="-209223784" to="209223779#2" fromLane="0" toLane="0"/>
    <connection from="-209223784" to="209223784" fromLane="0" toLane="0"/>

    <connection from="-209223785" to="307678853#4" fromLane="0" toLane="0"/>
    <connection from="-209223785" to="-307678853#3" fromLane="0" toLane="0"/>
    <connection from="-209223785" to="209223785" fromLane="0" toLane="0"/>

    <connection from="-209223787#0" to="209223787#0" fromLane="0" toLane="0"/>

    <connection from="-209223787#1" to="-209223787#0" fromLane="0" toLane="0"/>
    <connection from="-209223787#1" to="-209223770" fromLane="0" toLane="0"/>
    <connection from="-209223787#1" to="209223787#1" fromLane="0" toLane="0"/>

    <connection from="-209223787#2" to="-209223772" fromLane="0" toLane="0"/>
    <connection from="-209223787#2" to="-209223787#1" fromLane="0" toLane="0"/>
    <connection from="-209223787#2" to="209223787#2" fromLane="0" toLane="0"/>

    <connection from="-209223787#3" to="209223779#0" fromLane="0" toLane="0"/>
    <connection from="-209223787#3" to="-209223787#2" fromLane="0" toLane="0"/>
    <connection from="-209223787#3" to="209223787#3" fromLane="0" toLane="0"/>

    <connection from="-209309325" to="209309384#3" fromLane="0" toLane="0"/>
    <connection from="-209309325" to="-209309384#2" fromLane="0" toLane="0"/>
    <connection from="-209309325" to="209309325" fromLane="0" toLane="0"/>

    <connection from="-209309350" to="-209309384#3" fromLane="0" toLane="0"/>
    <connection from="-209309350" to="209309384#4" fromLane="0" toLane="0"/>
    <connection from="-209309350" to="209309350" fromLane="0" toLane="0"/>

    <connection from="-209309362" to="209309384#1" fromLane="0" toLane="0"/>
    <connection from="-209309362" to="-209309384#0" fromLane="0" toLane="0"/>
    <connection from="-209309362" to="209309362" fromLane="0" toLane="0"/>

    <connection from="-209309376" to="-209309380#0" fromLane="0" toLane="0"/>
    <connection from="-209309376" to="209309380#1" fromLane="0" toLane="0"/>
    <connection from="-209309376" to="209309376" fromLane="0" toLane="0"/>

    <connection from="-209309380#0" to="209309384#5" fromLane="0" toLane="0"/>
    <connection from="-209309380#0" to="-209309384#4" fromLane="0" toLane="0"/>
    <connection from="-209309380#0" to="209309380#0" fromLane="0" toLane="0"/>

    <connection from="-209309380#1" to="209309376" fromLane="0" toLane="0"/>
    <connection from="-209309380#1" to="-209309380#0" fromLane="0" toLane="0"/>
    <connection from="-209309380#1" to="209309380#1" fromLane="0" toLane="0"/>

    <connection from="-209309384#0" to="-390135436" fromLane="0" toLane="0"/>
    <connection from="-209309384#0" to="209309384#0" fromLane="0" toLane="0"/>

    <connection from="-209309384#1" to="-209309384#0" fromLane="0" toLane="0"/>
    <connection from="-209309384#1" to="209309362" fromLane="0" toLane="0"/>
    <connection from="-209309384#1" to="209309384#1" fromLane="0" toLane="0"/>

    <connection from="-209309384#2" to="-209309350" fromLane="0" toLane="0"/>
    <connection from="-209309384#2" to="-209309384#1" fromLane="0" toLane="0"/>
    <connection from="-209309384#2" to="209309384#2" fromLane="0" toLane="0"/>

    <connection from="-209309384#3" to="-209309384#2" fromLane="0" toLane="0"/>
    <connection from="-209309384#3" to="209309325" fromLane="0" toLane="0"/>
    <connection from="-209309384#3" to="209309384#3" fromLane="0" toLane="0"/>

    <connection from="-209309384#4" to="209309350" fromLane="0" toLane="0"/>
    <connection from="-209309384#4" to="-209309384#3" fromLane="0" toLane="0"/>
    <connection from="-209309384#4" to="209309384#4" fromLane="0" toLane="0"/>

    <connection from="-209309384#5" to="-209309384#4" fromLane="0" toLane="0"/>
    <connection from="-209309384#5" to="209309380#0" fromLane="0" toLane="0"/>
    <connection from="-209309384#5" to="209309384#5" fromLane="0" toLane="0"/>

    <connection from="-210384903" to="-210396030#3" fromLane="0" toLane="0"/>
    <connection from="-210384903" to="210396030#4" fromLane="0" toLane="0"/>
    <connection from="-210384903" to="210384903" fromLane="0" toLane="0"/>

    <connection from="-210384932#0" to="-210399956" fromLane="0" toLane="0"/>
    <connection from="-210384932#0" to="210384932#0" fromLane="0" toLane="0"/>

    <connection from="-210384932#1" to="-210392949" fromLane="0" toLane="0"/>
    <connection from="-210384932#1" to="-210384932#0" fromLane="0" toLane="0"/>
    <connection from="-210384932#1" to="210384932#1" fromLane="0" toLane="0"/>

    <connection from="-210384932#10" to="-210392968" fromLane="0" toLane="0"/>
    <connection from="-210384932#10" to="-210384932#9" fromLane="0" toLane="0"/>
    <connection from="-210384932#10" to="210384932#10" fromLane="0" toLane="0"/>

    <connection from="-210384932#2" to="-210399974#1" fromLane="0" toLane="0"/>
    <connection from="-210384932#2" to="-210384932#1" fromLane="0" toLane="0"/>
    <connection from="-210384932#2" to="210384932#2" fromLane="0" toLane="0"/>

    <connection from="-210384932#3" to="-210399959" fromLane="0" toLane="0"/>
    <connection from="-210384932#3" to="-210384932#2" fromLane="0" toLane="0"/>
    <connection from="-210384932#3" to="210384932#3" fromLane="0" toLane="0"/>

    <connection from="-210384932#4" to="-210396030#7" fromLane="0" toLane="0"/>
    <connection from="-210384932#4" to="-210384932#3" fromLane="0" toLane="0"/>
    <connection from="-210384932#4" to="210384932#4" fromLane="0" toLane="0"/>

    <connection from="-210384932#5" to="-210384932#4" fromLane="0" toLane="0"/>
    <connection from="-210384932#5" to="210384932#5" fromLane="0" toLane="0"/>

    <connection from="-210384932#6" to="210399951#0" fromLane="0" toLane="0"/>
    <connection from="-210384932#6" to="-210384932#5" fromLane="0" toLane="0"/>
    <connection from="-210384932#6" to="210384932#6" fromLane="0" toLane="0"/>

    <connection from="-210384932#7" to="210384952#0" fromLane="0" toLane="0"/>
    <connection from="-210384932#7" to="-210384932#6" fromLane="0" toLane="0"/>
    <connection from="-210384932#7" to="210384932#7" fromLane="0" toLane="0"/>

    <connection from="-210384932#8" to="-210392971" fromLane="0" toLane="0"/>
    <connection from="-210384932#8" to="-210384932#7" fromLane="0" toLane="0"/>
    <connection from="-210384932#8" to="210384932#8" fromLane="0" toLane="0"/>

    <connection from="-210384932#9" to="-210384953#1" fromLane="0" toLane="0"/>
    <connection from="-210384932#9" to="-210384932#8" fromLane="0" toLane="0"/>
    <connection from="-210384932#9" to="210384932#9" fromLane="0" toLane="0"/>

    <connection from="-210384952#0" to="-210384932#6" fromLane="0" toLane="0"/>
    <connection from="-210384952#0" to="210384932#7" fromLane="0" toLane="0"/>
    <connection from="-210384952#0" to="210384952#0" fromLane="0" toLane="0"/>

    <connection from="-210384952#1" to="495928097" fromLane="0" toLane="0"/>
    <connection from="-210384952#1" to="-210384952#0" fromLane="0" toLane="0"/>
    <connection from="-210384952#1" to="210384952#1" fromLane="0" toLane="0"/>

    <connection from="-210384952#2" to="-210384952#1" fromLane="0" toLane="0"/>
    <connection from="-210384952#2" to="-210392947#1" fromLane="0" toLane="0"/>
    <connection from="-210384952#2" to="210384952#2" fromLane="0" toLane="0"/>

    <connection from="-210384952#3" to="-210384952#2" fromLane="0" toLane="0"/>
    <connection from="-210384952#3" to="-210392951" fromLane="0" toLane="0"/>
    <connection from="-210384952#3" to="210384952#3" fromLane="0" toLane="0"/>

    <connection from="-210384952#4" to="210392966" fromLane="0" toLane="0"/>
    <connection from="-210384952#4" to="-210384952#3" fromLane="0" toLane="0"/>
    <connection from="-210384952#4" to="210384952#4" fromLane="0" toLane="0"/>

    <connection from="-210384952#5" to="-210384903" fromLane="0" toLane="0"/>
    <connection from="-210384952#5" to="-210384952#4" fromLane="0" toLane="0"/>
    <connection from="-210384952#5" to="210384952#5" fromLane="0" toLane="0"/>

    <connection from="-210384953#0" to="210384953#0" fromLane="0" toLane="0"/>

    <connection from="-210384953#1" to="-210384953#0" fromLane="0" toLane="0"/>
    <connection from="-210384953#1" to="210392947#0" fromLane="0" toLane="0"/>
    <connection from="-210384953#1" to="210384953#1" fromLane="0" toLane="0"/>

    <connection from="-210392894#0" to="210392894#0" fromLane="0" toLane="0"/>

    <connection from="-210392894#1" to="210392968" fromLane="0" toLane="0"/>
    <connection from="-210392894#1" to="-210392894#0" fromLane="0" toLane="0"/>
    <connection from="-210392894#1" to="210392894#1" fromLane="0" toLane="0"/>

    <connection from="-210392904#0" to="210396030#1" fromLane="0" toLane="0"/>
    <connection from="-210392904#0" to="-210396030#0" fromLane="0" toLane="0"/>
    <connection from="-210392904#0" to="210392904#0" fromLane="0" toLane="0"/>

    <connection from="-210392904#1" to="-210392904#0" fromLane="0" toLane="0"/>
    <connection from="-210392904#1" to="210392941#0" fromLane="0" toLane="0"/>
    <connection from="-210392904#1" to="210392904#1" fromLane="0" toLane="0"/>

    <connection from="-210392906" to="-210396019#1" fromLane="0" toLane="0"/>
    <connection from="-210392906" to="210396019#2" fromLane="0" toLane="0"/>
    <connection from="-210392906" to="210392906" fromLane="0" toLane="0"/>

    <connection from="-210392908" to="-210396019#3" fromLane="0" toLane="0"/>
    <connection from="-210392908" to="210396019#4" fromLane="0" toLane="0"/>
    <connection from="-210392908" to="210392908" fromLane="0" toLane="0"/>

    <connection from="-210392910" to="307639516#4" fromLane="0" toLane="0"/>
    <connection from="-210392910" to="-307639516#3" fromLane="0" toLane="0"/>
    <connection from="-210392910" to="210392910" fromLane="0" toLane="0"/>

    <connection from="-210392917#0" to="210396030#7" fromLane="0" toLane="0"/>
    <connection from="-210392917#0" to="-210396030#6" fromLane="0" toLane="0"/>
    <connection from="-210392917#0" to="210392917#0" fromLane="0" toLane="0"/>

    <connection from="-210392917#1" to="-210392917#0" fromLane="0" toLane="0"/>
    <connection from="-210392917#1" to="210396019#0" fromLane="0" toLane="0"/>
    <connection from="-210392917#1" to="210392917#1" fromLane="0" toLane="0"/>

    <connection from="-210392917#2" to="210392949" fromLane="0" toLane="0"/>
    <connection from="-210392917#2" to="-210392917#1" fromLane="0" toLane="0"/>
    <connection from="-210392917#2" to="210392917#2" fromLane="0" toLane="0"/>

    <connection from="-210392917#3" to="-210392917#2" fromLane="0" toLane="0"/>
    <connection from="-210392917#3" to="-494851741" fromLane="0" toLane="0"/>
    <connection from="-210392917#3" to="210392917#3" fromLane="0" toLane="0"/>

    <connection from="-210392918#0" to="210392918#0" fromLane="0" toLane="0"/>

    <connection from="-210392918#1" to="210392971" fromLane="0" toLane="0"/>
    <connection from="-210392918#1" to="-210392918#0" fromLane="0" toLane="0"/>
    <connection from="-210392918#1" to="210392918#1" fromLane="0" toLane="0"/>

    <connection from="-210392936#0" to="-210396019#0" fromLane="0" toLane="0"/>
    <connection from="-210392936#0" to="210396019#1" fromLane="0" toLane="0"/>
    <connection from="-210392936#0" to="210392936#0" fromLane="0" toLane="0"/>

    <connection from="-210392936#1" to="494851741" fromLane="0" toLane="0"/>
    <connection from="-210392936#1" to="-210392936#0" fromLane="0" toLane="0"/>
    <connection from="-210392936#1" to="210392936#1" fromLane="0" toLane="0"/>

    <connection from="-210392936#2" to="210395997" fromLane="0" toLane="0"/>
    <connection from="-210392936#2" to="-210392936#1" fromLane="0" toLane="0"/>
    <connection from="-210392936#2" to="210392936#2" fromLane="0" toLane="0"/>

    <connection from="-210392941#0" to="210392904#1" fromLane="0" toLane="0"/>
    <connection from="-210392941#0" to="-210392904#0" fromLane="0" toLane="0"/>
    <connection from="-210392941#0" to="210392941#0" fromLane="0" toLane="0"/>

    <connection from="-210392941#1" to="494851742" fromLane="0" toLane="0"/>
    <connection from="-210392941#1" to="-210392941#0" fromLane="0" toLane="0"/>
    <connection from="-210392941#1" to="210392941#1" fromLane="0" toLane="0"/>

    <connection from="-210392944#0" to="307639516#5" fromLane="0" toLane="0"/>
    <connection from="-210392944#0" to="-307639516#4" fromLane="0" toLane="0"/>
    <connection from="-210392944#0" to="210392944#0" fromLane="0" toLane="0"/>

    <connection from="-210392944#1" to="-210400551" fromLane="0" toLane="0"/>
    <connection from="-210392944#1" to="-210392944#0" fromLane="0" toLane="0"/>
    <connection from="-210392944#1" to="210392944#1" fromLane="0" toLane="0"/>

    <connection from="-210392944#2" to="-210392944#1" fromLane="0" toLane="0"/>
    <connection from="-210392944#2" to="-210396019#5" fromLane="0" toLane="0"/>
    <connection from="-210392944#2" to="210392944#2" fromLane="0" toLane="0"/>

    <connection from="-210392947#0" to="210384953#1" fromLane="0" toLane="0"/>
    <connection from="-210392947#0" to="-210384953#0" fromLane="0" toLane="0"/>
    <connection from="-210392947#0" to="210392947#0" fromLane="0" toLane="0"/>

    <connection from="-210392947#1" to="-210392947#0" fromLane="0" toLane="0"/>
    <connection from="-210392947#1" to="-210393657#1" fromLane="0" toLane="0"/>
    <connection from="-210392947#1" to="210392947#1" fromLane="0" toLane="0"/>

    <connection from="-210392949" to="-210392917#1" fromLane="0" toLane="0"/>
    <connection from="-210392949" to="210392917#2" fromLane="0" toLane="0"/>
    <connection from="-210392949" to="210392949" fromLane="0" toLane="0"/>

    <connection from="-210392951" to="210393657#1" fromLane="0" toLane="0"/>
    <connection from="-210392951" to="-210393657#0" fromLane="0" toLane="0"/>
    <connection from="-210392951" to="210392951" fromLane="0" toLane="0"/>

    <connection from="-210392960#0" to="307639516#6" fromLane="0" toLane="0"/>
    <connection from="-210392960#0" to="-307639516#5" fromLane="0" toLane="0"/>
    <connection from="-210392960#0" to="210392960#0" fromLane="0" toLane="0"/>

    <connection from="-210392960#1" to="-210392960#0" fromLane="0" toLane="0"/>
    <connection from="-210392960#1" to="210400551" fromLane="0" toLane="0"/>
    <connection from="-210392960#1" to="210392960#1" fromLane="0" toLane="0"/>

    <connection from="-210392960#2" to="-494851742" fromLane="0" toLane="0"/>
    <connection from="-210392960#2" to="-210392960#1" fromLane="0" toLane="0"/>
    <connection from="-210392960#2" to="210392960#2" fromLane="0" toLane="0"/>

    <connection from="-210392960#3" to="-210392904#1" fromLane="0" toLane="0"/>
    <connection from="-210392960#3" to="-210392960#2" fromLane="0" toLane="0"/>
    <connection from="-210392960#3" to="210392960#3" fromLane="0" toLane="0"/>

    <connection from="-210392966" to="-210384952#3" fromLane="0" toLane="0"/>
    <connection from="-210392966" to="210384952#4" fromLane="0" toLane="0"/>
    <connection from="-210392966" to="210392966" fromLane="0" toLane="0"/>

    <connection from="-210392968" to="-210392894#0" fromLane="0" toLane="0"/>
    <connection from="-210392968" to="210392894#1" fromLane="0" toLane="0"/>
    <connection from="-210392968" to="210392968" fromLane="0" toLane="0"/>

    <connection from="-210392971" to="-210392918#0" fromLane="0" toLane="0"/>
    <connection from="-210392971" to="210392918#1" fromLane="0" toLane="0"/>
    <connection from="-210392971" to="210392971" fromLane="0" toLane="0"/>

    <connection from="-210393657#0" to="210393657#0" fromLane="0" toLane="0"/>

    <connection from="-210393657#1" to="-210393657#0" fromLane="0" toLane="0"/>
    <connection from="-210393657#1" to="210392951" fromLane="0" toLane="0"/>
    <connection from="-210393657#1" to="210393657#1" fromLane="0" toLane="0"/>

    <connection from="-210395997" to="-210392936#1" fromLane="0" toLane="0"/>
    <connection from="-210395997" to="210392936#2" fromLane="0" toLane="0"/>
    <connection from="-210395997" to="210395997" fromLane="0" toLane="0"/>

    <connection from="-210396019#0" to="210392917#1" fromLane="0" toLane="0"/>
    <connection from="-210396019#0" to="-210392917#0" fromLane="0" toLane="0"/>
    <connection from="-210396019#0" to="210396019#0" fromLane="0" toLane="0"/>

    <connection from="-210396019#1" to="210392936#0" fromLane="0" toLane="0"/>
    <connection from="-210396019#1" to="-210396019#0" fromLane="0" toLane="0"/>
    <connection from="-210396019#1" to="210396019#1" fromLane="0" toLane="0"/>

    <connection from="-210396019#2" to="210392906" fromLane="0" toLane="0"/>
    <connection from="-210396019#2" to="-210396019#1" fromLane="0" toLane="0"/>
    <connection from="-210396019#2" to="210396019#2" fromLane="0" toLane="0"/>

    <connection from="-210396019#3" to="-210396019#2" fromLane="0" toLane="0"/>
    <connection from="-210396019#3" to="210396032" fromLane="0" toLane="0"/>
    <connection from="-210396019#3" to="210396019#3" fromLane="0" toLane="0"/>

    <connection from="-210396019#4" to="210392908" fromLane="0" toLane="0"/>
    <connection from="-210396019#4" to="-210396019#3" fromLane="0" toLane="0"/>
    <connection from="-210396019#4" to="210396019#4" fromLane="0" toLane="0"/>

    <connection from="-210396019#5" to="-210392910" fromLane="0" toLane="0"/>
    <connection from="-210396019#5" to="-210396019#4" fromLane="0" toLane="0"/>
    <connection from="-210396019#5" to="210396019#5" fromLane="0" toLane="0"/>

    <connection from="-210396030#0" to="210396030#0" fromLane="0" toLane="0"/>

    <connection from="-210396030#1" to="-210396030#0" fromLane="0" toLane="0"/>
    <connection from="-210396030#1" to="210392904#0" fromLane="0" toLane="0"/>
    <connection from="-210396030#1" to="210396030#1" fromLane="0" toLane="0"/>

    <connection from="-210396030#2" to="-210396030#1" fromLane="0" toLane="0"/>
    <connection from="-210396030#2" to="-210392960#3" fromLane="0" toLane="0"/>
    <connection from="-210396030#2" to="210396030#2" fromLane="0" toLane="0"/>

    <connection from="-210396030#3" to="-210396030#2" fromLane="0" toLane="0"/>
    <connection from="-210396030#3" to="-210392944#2" fromLane="0" toLane="0"/>
    <connection from="-210396030#3" to="210396030#3" fromLane="0" toLane="0"/>

    <connection from="-210396030#4" to="210384903" fromLane="0" toLane="0"/>
    <connection from="-210396030#4" to="-210396030#3" fromLane="0" toLane="0"/>
    <connection from="-210396030#4" to="210396030#4" fromLane="0" toLane="0"/>

    <connection from="-210396030#5" to="-210392966" fromLane="0" toLane="0"/>
    <connection from="-210396030#5" to="-210396030#4" fromLane="0" toLane="0"/>
    <connection from="-210396030#5" to="210396030#5" fromLane="0" toLane="0"/>

    <connection from="-210396030#6" to="-210396030#5" fromLane="0" toLane="0"/>
    <connection from="-210396030#6" to="-210396032" fromLane="0" toLane="0"/>
    <connection from="-210396030#6" to="210396030#6" fromLane="0" toLane="0"/>

    <connection from="-210396030#7" to="-210396030#6" fromLane="0" toLane="0"/>
    <connection from="-210396030#7" to="210392917#0" fromLane="0" toLane="0"/>
    <connection from="-210396030#7" to="210396030#7" fromLane="0" toLane="0"/>

    <connection from="-210396032" to="210396019#3" fromLane="0" toLane="0"/>
    <connection from="-210396032" to="-210396019#2" fromLane="0" toLane="0"/>
    <connection from="-210396032" to="210396032" fromLane="0" toLane="0"/>

    <connection from="-210399950" to="-210399974#0" fromLane="0" toLane="0"/>
    <connection from="-210399950" to="210399974#1" fromLane="0" toLane="0"/>
    <connection from="-210399950" to="210399950" fromLane="0" toLane="0"/>

    <connection from="-210399956" to="-210399971#0" fromLane="0" toLane="0"/>
    <connection from="-210399956" to="210399971#1" fromLane="0" toLane="0"/>
    <connection from="-210399956" to="210399956" fromLane="0" toLane="0"/>

    <connection from="-210399959" to="-210399964#0" fromLane="0" toLane="0"/>
    <connection from="-210399959" to="210399964#1" fromLane="0" toLane="0"/>
    <connection from="-210399959" to="210399959" fromLane="0" toLane="0"/>

    <connection from="-210399964#0" to="210399964#0" fromLane="0" toLane="0"/>

    <connection from="-210399964#1" to="210399959" fromLane="0" toLane="0"/>
    <connection from="-210399964#1" to="-210399964#0" fromLane="0" toLane="0"/>
    <connection from="-210399964#1" to="210399964#1" fromLane="0" toLane="0"/>

    <connection from="-210399971#0" to="210399971#0" fromLane="0" toLane="0"/>

    <connection from="-210399971#1" to="210399956" fromLane="0" toLane="0"/>
    <connection from="-210399971#1" to="-210399971#0" fromLane="0" toLane="0"/>
    <connection from="-210399971#1" to="210399971#1" fromLane="0" toLane="0"/>

    <connection from="-210399971#2" to="-210399971#1" fromLane="0" toLane="0"/>
    <connection from="-210399971#2" to="-210400549" fromLane="0" toLane="0"/>
    <connection from="-210399971#2" to="210399971#2" fromLane="0" toLane="0"/>

    <connection from="-210399972#0" to="210399975#1" fromLane="0" toLane="0"/>
    <connection from="-210399972#0" to="-210399975#0" fromLane="0" toLane="0"/>
    <connection from="-210399972#0" to="210399972#0" fromLane="0" toLane="0"/>

    <connection from="-210399972#1" to="-210399972#0" fromLane="0" toLane="0"/>
    <connection from="-210399972#1" to="210399977#0" fromLane="0" toLane="0"/>
    <connection from="-210399972#1" to="210399972#1" fromLane="0" toLane="0"/>

    <connection from="-210399974#0" to="210399974#0" fromLane="0" toLane="0"/>

    <connection from="-210399974#1" to="210399950" fromLane="0" toLane="0"/>
    <connection from="-210399974#1" to="-210399974#0" fromLane="0" toLane="0"/>
    <connection from="-210399974#1" to="210399974#1" fromLane="0" toLane="0"/>

    <connection from="-210399975#0" to="210399977#2" fromLane="0" toLane="0"/>
    <connection from="-210399975#0" to="-210399977#1" fromLane="0" toLane="0"/>
    <connection from="-210399975#0" to="210399975#0" fromLane="0" toLane="0"/>

    <connection from="-210399975#1" to="-210399975#0" fromLane="0" toLane="0"/>
    <connection from="-210399975#1" to="210399972#0" fromLane="0" toLane="0"/>
    <connection from="-210399975#1" to="210399975#1" fromLane="0" toLane="0"/>

    <connection from="-210399977#0" to="210399972#1" fromLane="0" toLane="0"/>
    <connection from="-210399977#0" to="-210399972#0" fromLane="0" toLane="0"/>
    <connection from="-210399977#0" to="210399977#0" fromLane="0" toLane="0"/>

    <connection from="-210399977#1" to="-210399972#1" fromLane="0" toLane="0"/>
    <connection from="-210399977#1" to="-210399977#0" fromLane="0" toLane="0"/>
    <connection from="-210399977#1" to="210399977#1" fromLane="0" toLane="0"/>

    <connection from="-210399977#2" to="-210399977#1" fromLane="0" toLane="0"/>
    <connection from="-210399977#2" to="210399975#0" fromLane="0" toLane="0"/>
    <connection from="-210399977#2" to="210399977#2" fromLane="0" toLane="0"/>

    <connection from="-210400548#0" to="210400548#0" fromLane="0" toLane="0"/>

    <connection from="-210400548#1" to="210400549" fromLane="0" toLane="0"/>
    <connection from="-210400548#1" to="-210400548#0" fromLane="0" toLane="0"/>
    <connection from="-210400548#1" to="210400548#1" fromLane="0" toLane="0"/>

    <connection from="-210400549" to="-210400548#0" fromLane="0" toLane="0"/>
    <connection from="-210400549" to="210400548#1" fromLane="0" toLane="0"/>
    <connection from="-210400549" to="210400549" fromLane="0" toLane="0"/>

    <connection from="-210400551" to="210392960#1" fromLane="0" toLane="0"/>
    <connection from="-210400551" to="-210392960#0" fromLane="0" toLane="0"/>
    <connection from="-210400551" to="210400551" fromLane="0" toLane="0"/>

    <connection from="-210401095#0" to="210401095#0" fromLane="0" toLane="0"/>

    <connection from="-210401095#1" to="-210401095#0" fromLane="0" toLane="0"/>
    <connection from="-210401095#1" to="210401100" fromLane="0" toLane="0"/>
    <connection from="-210401095#1" to="210401095#1" fromLane="0" toLane="0"/>

    <connection from="-210401100" to="210401095#1" fromLane="0" toLane="0"/>
    <connection from="-210401100" to="-210401095#0" fromLane="0" toLane="0"/>
    <connection from="-210401100" to="210401100" fromLane="0" toLane="0"/>

    <connection from="-210588830#0" to="366288043#0" fromLane="0" toLane="0"/>
    <connection from="-210588830#0" to="-366288027" fromLane="0" toLane="0"/>
    <connection from="-210588830#0" to="210588830#0" fromLane="0" toLane="0"/>

    <connection from="-210588830#1" to="210588851#2" fromLane="0" toLane="0"/>
    <connection from="-210588830#1" to="-210588830#0" fromLane="0" toLane="0"/>
    <connection from="-210588830#1" to="-210588851#1" fromLane="0" toLane="0"/>
    <connection from="-210588830#1" to="210588830#1" fromLane="0" toLane="0"/>

    <connection from="-210588830#2" to="-366288043#1" fromLane="0" toLane="0"/>
    <connection from="-210588830#2" to="-210588830#1" fromLane="0" toLane="0"/>
    <connection from="-210588830#2" to="366288043#2" fromLane="0" toLane="0"/>
    <connection from="-210588830#2" to="210588830#2" fromLane="0" toLane="0"/>

    <connection from="-210588830#3" to="366288027" fromLane="0" toLane="0"/>
    <connection from="-210588830#3" to="-210588851#3" fromLane="0" toLane="0"/>
    <connection from="-210588830#3" to="-210588830#2" fromLane="0" toLane="0"/>
    <connection from="-210588830#3" to="210588830#3" fromLane="0" toLane="0"/>

    <connection from="-210588830#4" to="210588899#0" fromLane="0" toLane="0"/>
    <connection from="-210588830#4" to="-210588830#3" fromLane="0" toLane="0"/>
    <connection from="-210588830#4" to="210588830#4" fromLane="0" toLane="0"/>

    <connection from="-210588831" to="210588842#3" fromLane="0" toLane="0"/>
    <connection from="-210588831" to="-210588842#2" fromLane="0" toLane="0"/>