<?xml version="1.0" encoding="UTF-8"?>

<!-- generated on 05/16/18 16:06:54 by SUMO netconvert Version 0.32.0
<?xml version="1.0" encoding="UTF-8"?>

<configuration xmlns:xsi="http://www.w3.org/2001/XMLSchema-instance" xsi:noNamespaceSchemaLocation="http://sumo.dlr.de/xsd/netconvertConfiguration.xsd">

    <input>
        <osm-files value="export.osm"/>
    </input>

    <output>
        <output-file value="export.net.xml"/>
    </output>

    <projection>
        <proj.utm value="true"/>
    </projection>

</configuration>
-->

<net version="0.27" xmlns:xsi="http://www.w3.org/2001/XMLSchema-instance" xsi:noNamespaceSchemaLocation="http://sumo.dlr.de/xsd/net_file.xsd">

    <location netOffset="-688039.52,-5635538.76" convBoundary="0.00,0.00,1729.88,1613.68" origBoundary="5.671392,50.840910,5.695547,50.855246" projParameter="+proj=utm +zone=31 +ellps=WGS84 +datum=WGS84 +units=m +no_defs"/>

    <type id="highway.bridleway" priority="1" numLanes="1" speed="2.78" allow="pedestrian" oneway="1" width="2.00"/>
    <type id="highway.bus_guideway" priority="1" numLanes="1" speed="8.33" allow="bus" oneway="1"/>
    <type id="highway.cycleway" priority="1" numLanes="1" speed="5.56" allow="bicycle" oneway="0" width="1.00"/>
    <type id="highway.footway" priority="1" numLanes="1" speed="2.78" allow="pedestrian" oneway="1" width="2.00"/>
    <type id="highway.ford" priority="1" numLanes="1" speed="2.78" allow="army" oneway="0"/>
    <type id="highway.living_street" priority="3" numLanes="1" speed="2.78" disallow="tram rail_urban rail rail_electric ship" oneway="0"/>
    <type id="highway.motorway" priority="13" numLanes="2" speed="44.44" allow="private emergency authority army vip passenger hov taxi bus coach delivery truck trailer motorcycle evehicle custom1 custom2" oneway="1"/>
    <type id="highway.motorway_link" priority="12" numLanes="1" speed="22.22" allow="private emergency authority army vip passenger hov taxi bus coach delivery truck trailer motorcycle evehicle custom1 custom2" oneway="1"/>
    <type id="highway.path" priority="1" numLanes="1" speed="2.78" allow="bicycle pedestrian" oneway="1" width="2.00"/>
    <type id="highway.pedestrian" priority="1" numLanes="1" speed="2.78" allow="pedestrian" oneway="1" width="2.00"/>
    <type id="highway.primary" priority="9" numLanes="2" speed="27.78" disallow="tram rail_urban rail rail_electric ship" oneway="0"/>
    <type id="highway.primary_link" priority="8" numLanes="1" speed="22.22" disallow="tram rail_urban rail rail_electric ship" oneway="0"/>
    <type id="highway.raceway" priority="14" numLanes="2" speed="83.33" allow="vip" oneway="0"/>
    <type id="highway.residential" priority="4" numLanes="1" speed="13.89" disallow="tram rail_urban rail rail_electric ship" oneway="0"/>
    <type id="highway.secondary" priority="7" numLanes="2" speed="27.78" disallow="tram rail_urban rail rail_electric ship" oneway="0"/>
    <type id="highway.secondary_link" priority="6" numLanes="1" speed="22.22" disallow="tram rail_urban rail rail_electric ship" oneway="0"/>
    <type id="highway.service" priority="2" numLanes="1" speed="5.56" allow="delivery bicycle pedestrian" oneway="0"/>
    <type id="highway.services" priority="1" numLanes="1" speed="8.33" disallow="tram rail_urban rail rail_electric ship" oneway="0"/>
    <type id="highway.stairs" priority="1" numLanes="1" speed="1.39" allow="pedestrian" oneway="1" width="2.00"/>
    <type id="highway.step" priority="1" numLanes="1" speed="1.39" allow="pedestrian" oneway="1" width="2.00"/>
    <type id="highway.steps" priority="1" numLanes="1" speed="1.39" allow="pedestrian" oneway="1" width="2.00"/>
    <type id="highway.tertiary" priority="6" numLanes="1" speed="22.22" disallow="tram rail_urban rail rail_electric ship" oneway="0"/>
    <type id="highway.tertiary_link" priority="5" numLanes="1" speed="22.22" disallow="tram rail_urban rail rail_electric ship" oneway="0"/>
    <type id="highway.track" priority="1" numLanes="1" speed="5.56" disallow="tram rail_urban rail rail_electric ship" oneway="0"/>
    <type id="highway.trunk" priority="11" numLanes="2" speed="27.78" disallow="tram rail_urban rail rail_electric bicycle pedestrian ship" oneway="0"/>
    <type id="highway.trunk_link" priority="10" numLanes="1" speed="22.22" disallow="tram rail_urban rail rail_electric bicycle pedestrian ship" oneway="0"/>
    <type id="highway.unclassified" priority="5" numLanes="1" speed="13.89" disallow="tram rail_urban rail rail_electric ship" oneway="0"/>
    <type id="highway.unsurfaced" priority="1" numLanes="1" speed="8.33" disallow="tram rail_urban rail rail_electric ship" oneway="0"/>
    <type id="railway.light_rail" priority="15" numLanes="1" speed="27.78" allow="rail_urban" oneway="1"/>
    <type id="railway.preserved" priority="15" numLanes="1" speed="27.78" allow="rail" oneway="1"/>
    <type id="railway.rail" priority="15" numLanes="1" speed="83.33" allow="rail rail_electric" oneway="1"/>
    <type id="railway.subway" priority="15" numLanes="1" speed="27.78" allow="rail_urban" oneway="1"/>
    <type id="railway.tram" priority="15" numLanes="1" speed="13.89" allow="tram" oneway="1"/>

    <edge id=":1035775429_0" function="internal">
        <lane id=":1035775429_0_0" index="0" allow="delivery bicycle pedestrian" speed="5.56" length="1.13" shape="1236.73,296.27 1236.43,297.36"/>
    </edge>
    <edge id=":1035775429_1" function="internal">
        <lane id=":1035775429_1_0" index="0" allow="bicycle" speed="5.56" length="0.80" width="1.00" shape="1236.73,296.27 1236.32,295.99 1236.19,295.72"/>
    </edge>
    <edge id=":1035775429_4" function="internal">
        <lane id=":1035775429_4_0" index="0" speed="5.56" length="0.80" width="1.00" shape="1236.19,295.72 1236.33,295.44 1236.75,295.17"/>
    </edge>
    <edge id=":1035775429_2" function="internal">
        <lane id=":1035775429_2_0" index="0" allow="bicycle" speed="5.56" length="1.11" width="1.00" shape="1236.62,294.07 1236.75,295.17"/>
    </edge>
    <edge id=":1035775429_3" function="internal">
        <lane id=":1035775429_3_0" index="0" allow="delivery bicycle pedestrian" speed="5.56" length="2.41" shape="1236.62,294.07 1237.81,294.96 1238.17,295.81"/>
    </edge>
    <edge id=":1035775429_5" function="internal">
        <lane id=":1035775429_5_0" index="0" speed="5.56" length="2.41" shape="1238.17,295.81 1237.71,296.61 1236.43,297.36"/>
    </edge>
    <edge id=":1035775447_0" function="internal">
        <lane id=":1035775447_0_0" index="0" allow="delivery bicycle pedestrian" speed="5.56" length="4.82" shape="935.91,249.49 934.47,249.13 933.81,248.49 933.92,247.57 934.81,246.38"/>
    </edge>
    <edge id=":1035775453_0" function="internal">
        <lane id=":1035775453_0_0" index="0" allow="delivery bicycle pedestrian" speed="5.56" length="5.03" shape="1133.27,225.98 1132.69,224.73 1131.85,223.97 1130.74,223.71 1129.38,223.96"/>
    </edge>
    <edge id=":1035775453_1" function="internal">
        <lane id=":1035775453_1_0" index="0" allow="delivery bicycle pedestrian" speed="5.56" length="9.50" shape="1133.27,225.98 1130.53,216.88"/>
    </edge>
    <edge id=":1035775453_2" function="internal">
        <lane id=":1035775453_2_0" index="0" allow="delivery bicycle pedestrian" speed="5.56" length="4.82" shape="1133.27,225.98 1133.70,224.56 1134.38,223.92 1135.28,224.08 1136.43,225.03"/>
    </edge>
    <edge id=":1035775453_3" function="internal">
        <lane id=":1035775453_3_0" index="0" allow="delivery bicycle pedestrian" speed="5.56" length="9.50" shape="1133.69,215.93 1136.43,225.03"/>
    </edge>
    <edge id=":1035775453_4" function="internal">
        <lane id=":1035775453_4_0" index="0" allow="delivery bicycle pedestrian" speed="5.56" length="10.33" shape="1133.69,215.93 1134.10,218.68 1133.52,220.94 1131.94,222.70 1129.38,223.96"/>
    </edge>
    <edge id=":1035775453_5" function="internal">
        <lane id=":1035775453_5_0" index="0" allow="delivery bicycle pedestrian" speed="5.56" length="4.82" shape="1133.69,215.93 1133.25,217.35 1132.58,217.99 1131.67,217.83 1130.53,216.88"/>
    </edge>
    <edge id=":1035775453_6" function="internal">
        <lane id=":1035775453_6_0" index="0" allow="delivery bicycle pedestrian" speed="5.56" length="5.11" shape="1128.35,220.82 1129.63,220.20 1130.42,219.33 1130.72,218.23 1130.53,216.88"/>
    </edge>
    <edge id=":1035775453_7" function="internal">
        <lane id=":1035775453_7_0" index="0" allow="delivery bicycle pedestrian" speed="5.56" length="10.45" shape="1128.35,220.82 1131.18,220.32 1133.47,220.85 1135.22,222.42 1136.43,225.03"/>
    </edge>
    <edge id=":1035775453_8" function="internal">
        <lane id=":1035775453_8_0" index="0" allow="delivery bicycle pedestrian" speed="5.56" length="4.82" shape="1128.35,220.82 1129.78,221.22 1130.43,221.87 1130.30,222.79 1129.38,223.96"/>
    </edge>
    <edge id=":1035775462_0" function="internal">
        <lane id=":1035775462_0_0" index="0" allow="delivery bicycle pedestrian" speed="5.56" length="9.50" shape="1087.06,237.93 1078.04,240.91"/>
    </edge>
    <edge id=":1035775462_1" function="internal">
        <lane id=":1035775462_1_0" index="0" allow="delivery bicycle pedestrian" speed="5.56" length="10.34" shape="1087.06,237.93 1084.27,238.43 1081.99,237.92 1080.22,236.39 1078.97,233.84"/>
    </edge>
    <edge id=":1035775462_2" function="internal">
        <lane id=":1035775462_2_0" index="0" allow="delivery bicycle pedestrian" speed="5.56" length="4.82" shape="1087.06,237.93 1085.62,237.54 1084.97,236.89 1085.11,235.97 1086.02,234.80"/>
    </edge>
    <edge id=":1035775462_3" function="internal">
        <lane id=":1035775462_3_0" index="0" allow="delivery bicycle pedestrian" speed="5.56" length="5.00" shape="1082.11,232.82 1082.72,234.05 1083.57,234.79 1084.67,235.04 1086.02,234.80"/>
    </edge>
    <edge id=":1035775462_4" function="internal">
        <lane id=":1035775462_4_0" index="0" allow="delivery bicycle pedestrian" speed="5.56" length="10.32" shape="1082.11,232.82 1082.60,235.61 1082.08,237.89 1080.56,239.66 1078.04,240.91"/>
    </edge>
    <edge id=":1035775462_5" function="internal">
        <lane id=":1035775462_5_0" index="0" allow="delivery bicycle pedestrian" speed="5.56" length="4.82" shape="1082.11,232.82 1081.71,234.25 1081.05,234.90 1080.14,234.76 1078.97,233.84"/>
    </edge>
    <edge id=":1035775462_6" function="internal">
        <lane id=":1035775462_6_0" index="0" allow="delivery bicycle pedestrian" speed="5.56" length="5.02" shape="1077.00,237.78 1078.23,237.17 1078.96,236.31 1079.21,235.20 1078.97,233.84"/>
    </edge>
    <edge id=":1035775462_7" function="internal">
        <lane id=":1035775462_7_0" index="0" allow="delivery bicycle pedestrian" speed="5.56" length="9.50" shape="1077.00,237.78 1086.02,234.80"/>
    </edge>
    <edge id=":1035775462_8" function="internal">
        <lane id=":1035775462_8_0" index="0" allow="delivery bicycle pedestrian" speed="5.56" length="4.82" shape="1077.00,237.78 1078.44,238.18 1079.09,238.83 1078.95,239.74 1078.04,240.91"/>
    </edge>
    <edge id=":1035775467_0" function="internal">
        <lane id=":1035775467_0_0" index="0" allow="delivery bicycle pedestrian" speed="5.56" length="5.04" shape="998.37,230.74 997.76,229.50 996.91,228.75 995.80,228.52 994.44,228.79"/>
    </edge>
    <edge id=":1035775467_1" function="internal">
        <lane id=":1035775467_1_0" index="0" allow="bicycle" speed="5.56" length="9.65" width="1.00" shape="998.37,230.74 997.66,227.97 997.43,226.01 997.17,224.06 996.41,221.31"/>
    </edge>
    <edge id=":1035775467_2" function="internal">
        <lane id=":1035775467_2_0" index="0" allow="delivery bicycle pedestrian" speed="5.56" length="4.82" shape="998.37,230.74 998.78,229.31 999.44,228.67 1000.35,228.81 1001.51,229.74"/>
    </edge>
    <edge id=":1035775467_3" function="internal">
        <lane id=":1035775467_3_0" index="0" allow="delivery bicycle pedestrian" speed="5.56" length="9.70" shape="997.45,220.95 998.54,223.61 999.52,225.34 1000.48,227.07 1001.51,229.74"/>
    </edge>
    <edge id=":1035775467_4" function="internal">
        <lane id=":1035775467_4_0" index="0" allow="delivery bicycle pedestrian" speed="5.56" length="9.53" shape="997.45,220.95 998.04,223.71 997.73,225.93 996.53,227.63 994.44,228.79"/>
    </edge>
    <edge id=":1035775467_5" function="internal">
        <lane id=":1035775467_5_0" index="0" allow="bicycle" speed="5.56" length="1.61" width="1.00" shape="997.45,220.95 997.32,221.43 997.11,221.65 996.80,221.61 996.41,221.31"/>
    </edge>
    <edge id=":1035775467_6" function="internal">
        <lane id=":1035775467_6_0" index="0" allow="bicycle" speed="5.56" length="6.03" width="1.00" shape="993.34,225.68 995.06,224.87 996.14,223.87 996.59,222.68 996.41,221.31"/>
    </edge>
    <edge id=":1035775467_7" function="internal">
        <lane id=":1035775467_7_0" index="0" allow="delivery bicycle pedestrian" speed="5.56" length="10.49" shape="993.34,225.68 996.17,225.11 998.47,225.60 1000.25,227.15 1001.51,229.74"/>
    </edge>
    <edge id=":1035775467_8" function="internal">
        <lane id=":1035775467_8_0" index="0" allow="delivery bicycle pedestrian" speed="5.56" length="4.82" shape="993.34,225.68 994.78,226.04 995.44,226.69 995.33,227.60 994.44,228.79"/>
    </edge>
    <edge id=":1035775469_0" function="internal">
        <lane id=":1035775469_0_0" index="0" allow="delivery bicycle pedestrian" speed="5.56" length="5.06" shape="1066.01,275.75 1065.43,274.47 1064.58,273.69 1063.48,273.41 1062.13,273.62"/>
    </edge>
    <edge id=":1035775469_1" function="internal">
        <lane id=":1035775469_1_0" index="0" allow="delivery bicycle pedestrian" speed="5.56" length="10.46" shape="1066.01,275.75 1065.58,272.90 1066.18,270.63 1067.80,268.92 1070.44,267.78"/>
    </edge>
    <edge id=":1035775469_2" function="internal">
        <lane id=":1035775469_2_0" index="0" allow="delivery bicycle pedestrian" speed="5.56" length="4.82" shape="1066.01,275.75 1066.45,274.33 1067.12,273.69 1068.03,273.85 1069.17,274.80"/>
    </edge>
    <edge id=":1035775469_3" function="internal">
        <lane id=":1035775469_3_0" index="0" allow="delivery bicycle pedestrian" speed="5.56" length="5.03" shape="1071.30,270.96 1070.03,271.51 1069.25,272.33 1068.97,273.43 1069.17,274.80"/>
    </edge>
    <edge id=":1035775469_4" function="internal">
        <lane id=":1035775469_4_0" index="0" allow="delivery bicycle pedestrian" speed="5.56" length="9.55" shape="1071.30,270.96 1062.13,273.62"/>
    </edge>
    <edge id=":1035775469_5" function="internal">
        <lane id=":1035775469_5_0" index="0" allow="delivery bicycle pedestrian" speed="5.56" length="4.82" shape="1071.30,270.96 1069.89,270.49 1069.28,269.80 1069.46,268.90 1070.44,267.78"/>
    </edge>
    <edge id=":1035775469_6" function="internal">
        <lane id=":1035775469_6_0" index="0" allow="delivery bicycle pedestrian" speed="5.56" length="9.66" shape="1061.15,270.47 1070.44,267.78"/>
    </edge>
    <edge id=":1035775469_7" function="internal">
        <lane id=":1035775469_7_0" index="0" allow="delivery bicycle pedestrian" speed="5.56" length="10.41" shape="1061.15,270.47 1063.96,270.03 1066.23,270.60 1067.97,272.19 1069.17,274.80"/>
    </edge>
    <edge id=":1035775469_8" function="internal">
        <lane id=":1035775469_8_0" index="0" allow="delivery bicycle pedestrian" speed="5.56" length="4.82" shape="1061.15,270.47 1062.58,270.89 1063.22,271.56 1063.07,272.47 1062.13,273.62"/>
    </edge>
    <edge id=":1035775478_0" function="internal">
        <lane id=":1035775478_0_0" index="0" allow="delivery bicycle pedestrian" speed="5.56" length="9.53" shape="1017.39,290.62 1014.51,281.54"/>
    </edge>
    <edge id=":1035775478_1" function="internal">
        <lane id=":1035775478_1_0" index="0" allow="delivery bicycle pedestrian" speed="5.56" length="10.62" shape="1017.39,290.62 1016.96,287.83 1017.57,285.55 1019.24,283.79 1021.97,282.53"/>
    </edge>
    <edge id=":1035775478_2" function="internal">
        <lane id=":1035775478_2_0" index="0" allow="delivery bicycle pedestrian" speed="5.56" length="4.82" shape="1017.39,290.62 1017.81,289.19 1018.47,288.55 1019.38,288.69 1020.54,289.62"/>
    </edge>
    <edge id=":1035775478_3" function="internal">
        <lane id=":1035775478_3_0" index="0" allow="delivery bicycle pedestrian" speed="5.56" length="5.06" shape="1022.70,285.76 1021.41,286.35 1020.62,287.20 1020.33,288.29 1020.54,289.62"/>
    </edge>
    <edge id=":1035775478_4" function="internal">
        <lane id=":1035775478_4_0" index="0" allow="delivery bicycle pedestrian" speed="5.56" length="10.49" shape="1022.70,285.76 1019.85,286.21 1017.53,285.66 1015.75,284.11 1014.51,281.54"/>
    </edge>
    <edge id=":1035775478_5" function="internal">
        <lane id=":1035775478_5_0" index="0" allow="delivery bicycle pedestrian" speed="5.56" length="4.83" shape="1022.70,285.76 1021.31,285.22 1020.72,284.51 1020.94,283.61 1021.97,282.53"/>
    </edge>
    <edge id=":1035775478_6" function="internal">
        <lane id=":1035775478_6_0" index="0" allow="delivery bicycle pedestrian" speed="5.56" length="5.40" shape="1017.65,280.54 1018.28,281.80 1019.21,282.55 1020.44,282.79 1021.97,282.53"/>
    </edge>
    <edge id=":1035775478_7" function="internal">
        <lane id=":1035775478_7_0" index="0" allow="delivery bicycle pedestrian" speed="5.56" length="9.52" shape="1017.65,280.54 1020.54,289.62"/>
    </edge>
    <edge id=":1035775478_8" function="internal">
        <lane id=":1035775478_8_0" index="0" allow="delivery bicycle pedestrian" speed="5.56" length="4.82" shape="1017.65,280.54 1017.24,281.97 1016.58,282.62 1015.67,282.47 1014.51,281.54"/>
    </edge>
    <edge id=":1035775489_0" function="internal">
        <lane id=":1035775489_0_0" index="0" allow="delivery bicycle pedestrian" speed="5.56" length="8.25" shape="1169.98,293.66 1167.54,293.57 1165.86,293.68 1164.21,294.01 1161.83,294.58"/>
    </edge>
    <edge id=":1035775489_1" function="internal">
        <lane id=":1035775489_1_0" index="0" allow="delivery bicycle pedestrian" speed="5.56" length="9.74" shape="1169.98,293.66 1167.75,293.18 1165.88,291.99 1164.36,290.11 1163.19,287.53"/>
    </edge>
    <edge id=":1035775489_2" function="internal">
        <lane id=":1035775489_2_0" index="0" allow="delivery bicycle pedestrian" speed="5.56" length="4.82" shape="1169.98,293.66 1168.79,292.77 1168.42,291.92 1168.88,291.12 1170.16,290.36"/>
    </edge>
    <edge id=":1035775489_3" function="internal">
        <lane id=":1035775489_3_0" index="0" allow="delivery bicycle pedestrian" speed="5.56" length="5.80" shape="1166.32,286.48 1167.03,288.13 1167.91,289.32 1168.95,290.07 1170.16,290.36"/>
    </edge>
    <edge id=":1035775489_4" function="internal">
        <lane id=":1035775489_4_0" index="0" allow="delivery bicycle pedestrian" speed="5.56" length="10.80" shape="1166.32,286.48 1166.86,289.43 1166.30,291.76 1164.62,293.48 1161.83,294.58"/>
    </edge>
    <edge id=":1035775489_5" function="internal">
        <lane id=":1035775489_5_0" index="0" allow="delivery bicycle pedestrian" speed="5.56" length="4.82" shape="1166.32,286.48 1165.94,287.92 1165.29,288.57 1164.37,288.44 1163.19,287.53"/>
    </edge>
    <edge id=":1035775489_6" function="internal">
        <lane id=":1035775489_6_0" index="0" allow="delivery bicycle pedestrian" speed="5.56" length="5.11" shape="1161.07,291.37 1162.39,290.85 1163.18,290.04 1163.45,288.93 1163.19,287.53"/>
    </edge>
    <edge id=":1035775489_7" function="internal">
        <lane id=":1035775489_7_0" index="0" allow="delivery bicycle pedestrian" speed="5.56" length="9.21" shape="1161.07,291.37 1163.72,290.73 1165.57,290.38 1167.44,290.27 1170.16,290.36"/>
    </edge>
    <edge id=":1035775489_8" function="internal">
        <lane id=":1035775489_8_0" index="0" allow="delivery bicycle pedestrian" speed="5.56" length="4.82" shape="1161.07,291.37 1162.46,291.89 1163.05,292.59 1162.84,293.49 1161.83,294.58"/>
    </edge>
    <edge id=":1035775491_0" function="internal">
        <lane id=":1035775491_0_0" index="0" allow="delivery bicycle pedestrian" speed="5.56" length="1.79" shape="1037.96,327.22 1037.45,327.36 1037.09,327.43 1036.73,327.44 1036.20,327.40"/>
    </edge>
    <edge id=":1035775491_1" function="internal">
        <lane id=":1035775491_1_0" index="0" allow="delivery bicycle pedestrian" speed="5.56" length="2.41" shape="1037.96,327.22 1036.54,326.77 1035.92,326.10"/>
    </edge>
    <edge id=":1035775491_4" function="internal">
        <lane id=":1035775491_4_0" index="0" speed="5.56" length="2.41" shape="1035.92,326.10 1036.08,325.19 1037.04,324.05"/>
    </edge>
    <edge id=":1035775491_2" function="internal">
        <lane id=":1035775491_2_0" index="0" allow="delivery bicycle pedestrian" speed="5.56" length="0.58" shape="1036.47,324.11 1036.64,324.12 1036.76,324.12 1036.88,324.10 1037.04,324.05"/>
    </edge>
    <edge id=":1035775491_3" function="internal">
        <lane id=":1035775491_3_0" index="0" allow="delivery bicycle pedestrian" speed="5.56" length="2.41" shape="1036.47,324.11 1037.63,325.03 1037.98,325.89"/>
    </edge>
    <edge id=":1035775491_5" function="internal">
        <lane id=":1035775491_5_0" index="0" speed="5.56" length="2.41" shape="1037.98,325.89 1037.50,326.68 1036.20,327.40"/>
    </edge>
    <edge id=":1035775492_0" function="internal">
        <lane id=":1035775492_0_0" index="0" allow="delivery bicycle pedestrian" speed="5.56" length="9.50" shape="1068.01,244.23 1058.98,247.20"/>
    </edge>
    <edge id=":1035775492_1" function="internal">
        <lane id=":1035775492_1_0" index="0" allow="delivery bicycle pedestrian" speed="5.56" length="10.48" shape="1068.01,244.23 1065.17,244.73 1062.87,244.20 1061.13,242.62 1059.92,240.00"/>
    </edge>
    <edge id=":1035775492_2" function="internal">
        <lane id=":1035775492_2_0" index="0" allow="delivery bicycle pedestrian" speed="5.56" length="4.82" shape="1068.01,244.23 1066.57,243.83 1065.92,243.18 1066.06,242.26 1066.97,241.09"/>
    </edge>
    <edge id=":1035775492_3" function="internal">
        <lane id=":1035775492_3_0" index="0" allow="delivery bicycle pedestrian" speed="5.56" length="5.04" shape="1063.09,239.06 1063.66,240.32 1064.50,241.08 1065.61,241.33 1066.97,241.09"/>
    </edge>
    <edge id=":1035775492_4" function="internal">
        <lane id=":1035775492_4_0" index="0" allow="delivery bicycle pedestrian" speed="5.56" length="10.33" shape="1063.09,239.06 1063.52,241.89 1062.98,244.19 1061.47,245.96 1058.98,247.20"/>
    </edge>
    <edge id=":1035775492_5" function="internal">
        <lane id=":1035775492_5_0" index="0" allow="delivery bicycle pedestrian" speed="5.56" length="4.82" shape="1063.09,239.06 1062.65,240.48 1061.97,241.11 1061.06,240.95 1059.92,240.00"/>
    </edge>
    <edge id=":1035775492_6" function="internal">
        <lane id=":1035775492_6_0" index="0" allow="delivery bicycle pedestrian" speed="5.56" length="5.12" shape="1057.95,244.07 1059.16,243.46 1059.89,242.57 1060.14,241.42 1059.92,240.00"/>
    </edge>
    <edge id=":1035775492_7" function="internal">
        <lane id=":1035775492_7_0" index="0" allow="delivery bicycle pedestrian" speed="5.56" length="9.50" shape="1057.95,244.07 1066.97,241.09"/>
    </edge>
    <edge id=":1035775492_8" function="internal">
        <lane id=":1035775492_8_0" index="0" allow="delivery bicycle pedestrian" speed="5.56" length="4.82" shape="1057.95,244.07 1059.38,244.47 1060.03,245.12 1059.90,246.03 1058.98,247.20"/>
    </edge>
    <edge id=":1035775495_0" function="internal">
        <lane id=":1035775495_0_0" index="0" allow="delivery bicycle pedestrian" speed="5.56" length="8.13" shape="1142.94,246.58 1143.28,248.80 1142.82,250.56 1141.55,251.88 1139.48,252.74"/>
    </edge>
    <edge id=":1035775495_1" function="internal">
        <lane id=":1035775495_1_0" index="0" allow="delivery bicycle pedestrian" speed="5.56" length="2.79" shape="1142.94,246.58 1142.51,248.01 1141.84,248.64 1141.47,248.58"/>
    </edge>
    <edge id=":1035775495_4" function="internal">
        <lane id=":1035775495_4_0" index="0" speed="5.56" length="2.03" shape="1141.47,248.58 1140.93,248.48 1139.79,247.54"/>
    </edge>
    <edge id=":1035775495_2" function="internal">
        <lane id=":1035775495_2_0" index="0" allow="delivery bicycle pedestrian" speed="5.56" length="2.66" shape="1138.65,249.55 1139.33,249.27 1139.74,248.84 1139.90,248.26 1139.79,247.54"/>
    </edge>
    <edge id=":1035775495_3" function="internal">
        <lane id=":1035775495_3_0" index="0" allow="delivery bicycle pedestrian" speed="5.56" length="2.20" shape="1138.65,249.55 1140.06,250.04 1140.53,250.57"/>
    </edge>
    <edge id=":1035775495_5" function="internal">
        <lane id=":1035775495_5_0" index="0" speed="5.56" length="2.62" shape="1140.53,250.57 1140.67,250.73 1140.47,251.63 1139.48,252.74"/>
    </edge>
    <edge id=":1035775505_0" function="internal">
        <lane id=":1035775505_0_0" index="0" allow="delivery bicycle pedestrian" speed="5.56" length="5.08" shape="1115.65,262.23 1115.08,260.94 1114.25,260.13 1113.16,259.81 1111.81,259.97"/>
    </edge>
    <edge id=":1035775505_1" function="internal">
        <lane id=":1035775505_1_0" index="0" allow="delivery bicycle pedestrian" speed="5.56" length="10.44" shape="1115.65,262.23 1115.27,259.39 1115.90,257.12 1117.53,255.44 1120.18,254.33"/>
    </edge>
    <edge id=":1035775505_2" function="internal">
        <lane id=":1035775505_2_0" index="0" allow="delivery bicycle pedestrian" speed="5.56" length="4.82" shape="1115.65,262.23 1116.11,260.82 1116.79,260.19 1117.69,260.37 1118.82,261.33"/>
    </edge>
    <edge id=":1035775505_3" function="internal">
        <lane id=":1035775505_3_0" index="0" allow="delivery bicycle pedestrian" speed="5.56" length="5.03" shape="1121.01,257.53 1119.73,258.06 1118.94,258.87 1118.64,259.96 1118.82,261.33"/>
    </edge>
    <edge id=":1035775505_4" function="internal">
        <lane id=":1035775505_4_0" index="0" allow="delivery bicycle pedestrian" speed="5.56" length="9.52" shape="1121.01,257.53 1111.81,259.97"/>
    </edge>
    <edge id=":1035775505_5" function="internal">
        <lane id=":1035775505_5_0" index="0" allow="delivery bicycle pedestrian" speed="5.56" length="4.82" shape="1121.01,257.53 1119.60,257.04 1119.00,256.35 1119.19,255.44 1120.18,254.33"/>
    </edge>
    <edge id=":1035775505_6" function="internal">
        <lane id=":1035775505_6_0" index="0" allow="delivery bicycle pedestrian" speed="5.56" length="9.56" shape="1110.94,256.78 1120.18,254.33"/>
    </edge>
    <edge id=":1035775505_7" function="internal">
        <lane id=":1035775505_7_0" index="0" allow="delivery bicycle pedestrian" speed="5.56" length="10.36" shape="1110.94,256.78 1113.73,256.44 1115.97,257.09 1117.67,258.72 1118.82,261.33"/>
    </edge>
    <edge id=":1035775505_8" function="internal">
        <lane id=":1035775505_8_0" index="0" allow="delivery bicycle pedestrian" speed="5.56" length="4.82" shape="1110.94,256.78 1112.35,257.26 1112.97,257.94 1112.78,258.85 1111.81,259.97"/>
    </edge>
    <edge id=":1232580150_0" function="internal">
        <lane id=":1232580150_0_0" index="0" disallow="tram rail_urban rail rail_electric ship" speed="6.95" length="5.98" shape="478.48,930.18 479.95,931.12 480.78,932.00 481.50,933.03 482.63,934.40"/>
    </edge>
    <edge id=":1232580150_1" function="internal">
        <lane id=":1232580150_1_0" index="0" disallow="tram rail_urban rail rail_electric ship" speed="8.33" length="4.63" shape="478.41,933.56 479.58,933.20 480.67,933.22 481.69,933.62 482.63,934.40"/>
    </edge>
    <edge id=":1256687064_0" function="internal">
        <lane id=":1256687064_0_0" index="0" disallow="tram rail_urban rail rail_electric ship" speed="9.73" length="6.44" shape="857.51,259.07 856.00,257.02 855.12,255.40 854.85,254.21 855.21,253.46"/>
    </edge>
    <edge id=":1256687064_1" function="internal">
        <lane id=":1256687064_1_0" index="0" allow="bicycle" speed="5.56" length="1.61" width="1.00" shape="857.51,259.07 857.46,258.58 857.59,258.30 857.89,258.23 858.37,258.38"/>
    </edge>
    <edge id=":1256687064_2" function="internal">
        <lane id=":1256687064_2_0" index="0" allow="bicycle" speed="9.73" length="2.88" width="1.00" shape="857.36,255.97 857.10,256.50 857.34,257.12 857.83,257.76 858.37,258.38"/>
    </edge>
    <edge id=":1256687064_3" function="internal">
        <lane id=":1256687064_3_0" index="0" disallow="tram rail_urban rail rail_electric ship" speed="13.89" length="1.64" shape="857.36,255.97 855.88,256.15 855.74,256.09"/>
    </edge>
    <edge id=":1256687064_6" function="internal">
        <lane id=":1256687064_6_0" index="0" speed="13.89" length="3.18" shape="855.74,256.09 855.03,255.79 854.81,254.89 855.21,253.46"/>
    </edge>
    <edge id=":1256687064_4" function="internal">
        <lane id=":1256687064_4_0" index="0" disallow="tram rail_urban rail rail_electric ship" speed="13.89" length="4.30" shape="853.37,257.22 854.09,256.23 854.27,255.31 854.46,254.41 855.21,253.46"/>
    </edge>
    <edge id=":1256687064_5" function="internal">
        <lane id=":1256687064_5_0" index="0" allow="bicycle" speed="9.73" length="2.92" width="1.00" shape="853.37,257.22 854.57,256.50 855.81,256.46 856.06,256.58"/>
    </edge>
    <edge id=":1256687064_7" function="internal">
        <lane id=":1256687064_7_0" index="0" speed="9.73" length="2.96" width="1.00" shape="856.06,256.58 857.07,257.08 858.37,258.38"/>
    </edge>
    <edge id=":1256908096_0" function="internal">