<?xml version="1.0" encoding="UTF-8"?>

<!-- generated on 6/25/2018 12:25:56 PM by Netedit Version 0.32.0
<?xml version="1.0" encoding="UTF-8"?>

<configuration xmlns:xsi="http://www.w3.org/2001/XMLSchema-instance" xsi:noNamespaceSchemaLocation="http://sumo.dlr.de/xsd/netconvertConfiguration.xsd">

    <input>
        <sumo-net-file value="C:\Users\abeld\Downloads\Intersection\diamondInterchange.net.xml"/>
    </input>

    <output>
        <output-file value="C:\Users\abeld\Downloads\Intersection\diamondInterchange.net.xml"/>
        <plain-output-prefix value="C:\Users\abeld\Downloads\Intersection\Diamond\Diamond"/>
    </output>

    <processing>
        <no-turnarounds value="true"/>
        <offset.disable-normalization value="true"/>
        <lefthand value="false"/>
        <junctions.corner-detail value="0"/>
        <rectangular-lane-cut value="false"/>
        <walkingareas value="false"/>
    </processing>

</configuration>
-->

<connections version="0.27" xmlns:xsi="http://www.w3.org/2001/XMLSchema-instance" xsi:noNamespaceSchemaLocation="http://sumo.dlr.de/xsd/connections_file.xsd">
    <connection from="gneE100" to="gneE106" fromLane="0" toLane="0"/>

    <connection from="gneE101" to="gneE103" fromLane="0" toLane="0"/>

    <connection from="gneE102" to="gneE104" fromLane="0" toLane="0"/>

    <connection from="gneE103" to="gneE328" fromLane="0" toLane="0"/>

    <connection from="gneE104" to="gneE329" fromLane="0" toLane="0"/>

    <connection from="gneE106" to="gneE283" fromLane="0" toLane="0"/>
    <connection from="gneE106" to="gneE330" fromLane="0" toLane="0"/>

    <connection from="gneE140" to="gneE145" fromLane="0" toLane="0"/>

    <connection from="gneE141" to="gneE144" fromLane="0" toLane="0"/>

    <connection from="gneE142" to="gneE143" fromLane="0" toLane="0"/>

    <connection from="gneE143" to="gneE327" fromLane="0" toLane="0"/>

    <connection from="gneE144" to="gneE326" fromLane="0" toLane="0"/>

    <connection from="gneE145" to="gneE279" fromLane="0" toLane="0"/>
    <connection from="gneE145" to="gneE325" fromLane="0" toLane="0"/>

    <connection from="gneE148" to="gneE154" fromLane="0" toLane="0"/>

    <connection from="gneE149" to="gneE153" fromLane="0" toLane="0"/>

    <connection from="gneE150" to="gneE152" fromLane="0" toLane="0"/>

    <connection from="gneE152" to="gneE310" fromLane="0" toLane="0"/>

    <connection from="gneE153" to="gneE309" fromLane="0" toLane="0"/>

    <connection from="gneE154" to="gneE308" fromLane="0" toLane="0"/>

    <connection from="gneE155" to="gneE158" fromLane="0" toLane="0"/>

    <connection from="gneE156" to="gneE159" fromLane="0" toLane="0"/>

    <connection from="gneE157" to="gneE160" fromLane="0" toLane="0"/>

    <connection from="gneE158" to="gneE311" fromLane="0" toLane="0"/>

    <connection from="gneE159" to="gneE312" fromLane="0" toLane="0"/>

    <connection from="gneE160" to="gneE313" fromLane="0" toLane="0"/>

    <connection from="gneE162" to="gneE159" fromLane="0" toLane="0"/>

    <connection from="gneE163" to="gneE158" fromLane="0" toLane="0"/>

    <connection from="gneE164" to="gneE160" fromLane="0" toLane="0"/>

    <connection from="gneE165" to="gneE159" fromLane="0" toLane="0"/>

    <connection from="gneE166" to="gneE144" fromLane="0" toLane="0"/>

    <connection from="gneE167" to="gneE143" fromLane="0" toLane="0"/>

    <connection from="gneE168" to="gneE145" fromLane="0" toLane="0"/>

    <connection from="gneE169" to="gneE144" fromLane="0" toLane="0"/>

    <connection from="gneE170" to="gneE153" fromLane="0" toLane="0"/>

    <connection from="gneE171" to="gneE152" fromLane="0" toLane="0"/>

    <connection from="gneE172" to="gneE154" fromLane="0" toLane="0"/>

    <connection from="gneE173" to="gneE153" fromLane="0" toLane="0"/>

    <connection from="gneE211" to="gneE199" fromLane="0" toLane="0"/>
    <connection from="gneE211" to="gneE200" fromLane="0" toLane="0"/>
    <connection from="gneE211" to="gneE346" fromLane="0" toLane="0"/>

    <connection from="gneE277" to="gneE348" fromLane="0" toLane="0"/>
    <connection from="gneE277" to="gneE180" fromLane="0" toLane="0"/>
    <connection from="gneE277" to="gneE174" fromLane="0" toLane="0"/>

    <connection from="gneE278" to="gneE347" fromLane="0" toLane="0"/>
    <connection from="gneE278" to="gneE202" fromLane="0" toLane="0"/>
    <connection from="gneE278" to="gneE197" fromLane="0" toLane="0"/>

    <connection from="gneE279" to="gneE295" fromLane="0" toLane="0"/>

    <connection from="gneE281" to="gneE33" fromLane="0" toLane="0"/>

    <connection from="gneE283" to="gneE304" fromLane="0" toLane="0"/>

    <connection from="gneE288" to="gneE306" fromLane="0" toLane="0"/>
    <connection from="gneE288" to="gneE289" fromLane="0" toLane="0"/>

    <connection from="gneE289" to="gneE307" fromLane="0" toLane="0"/>
    <connection from="gneE289" to="gneE290" fromLane="0" toLane="0"/>

    <connection from="gneE290" to="gneE291" fromLane="0" toLane="0"/>
    <connection from="gneE290" to="gneE322" fromLane="0" toLane="0"/>

    <connection from="gneE291" to="gneE292" fromLane="0" toLane="0"/>
    <connection from="gneE291" to="gneE323" fromLane="0" toLane="0"/>

    <connection from="gneE292" to="gneE293" fromLane="0" toLane="0"/>
    <connection from="gneE292" to="gneE324" fromLane="0" toLane="0"/>

    <connection from="gneE293" to="gneE294" fromLane="0" toLane="0"/>

    <connection from="gneE294" to="gneE39" fromLane="0" toLane="0"/>

    <connection from="gneE295" to="gneE316" fromLane="0" toLane="0"/>
    <connection from="gneE295" to="gneE296" fromLane="0" toLane="0"/>

    <connection from="gneE296" to="gneE315" fromLane="0" toLane="0"/>
    <connection from="gneE296" to="gneE297" fromLane="0" toLane="0"/>

    <connection from="gneE297" to="gneE314" fromLane="0" toLane="0"/>
    <connection from="gneE297" to="gneE298" fromLane="0" toLane="0"/>

    <connection from="gneE298" to="gneE299" fromLane="0" toLane="0"/>
    <connection from="gneE298" to="gneE319" fromLane="0" toLane="0"/>

    <connection from="gneE299" to="gneE300" fromLane="0" toLane="0"/>
    <connection from="gneE299" to="gneE318" fromLane="0" toLane="0"/>

    <connection from="gneE300" to="gneE301" fromLane="0" toLane="0"/>
    <connection from="gneE300" to="gneE317" fromLane="0" toLane="0"/>

    <connection from="gneE301" to="gneE281" fromLane="0" toLane="0"/>

    <connection from="gneE304" to="gneE305" fromLane="0" toLane="0"/>
    <connection from="gneE304" to="gneE288" fromLane="0" toLane="0"/>

    <connection from="gneE305" to="gneE58" fromLane="0" toLane="0"/>

    <connection from="gneE306" to="gneE59" fromLane="0" toLane="0"/>

    <connection from="gneE307" to="gneE277" fromLane="0" toLane="0"/>

    <connection from="gneE308" to="gneE291" fromLane="0" toLane="0"/>
    <connection from="gneE308" to="gneE322" fromLane="0" toLane="0"/>

    <connection from="gneE309" to="gneE292" fromLane="0" toLane="0"/>
    <connection from="gneE309" to="gneE323" fromLane="0" toLane="0"/>

    <connection from="gneE310" to="gneE293" fromLane="0" toLane="0"/>
    <connection from="gneE310" to="gneE324" fromLane="0" toLane="0"/>

    <connection from="gneE311" to="gneE301" fromLane="0" toLane="0"/>
    <connection from="gneE311" to="gneE317" fromLane="0" toLane="0"/>

    <connection from="gneE312" to="gneE300" fromLane="0" toLane="0"/>
    <connection from="gneE312" to="gneE318" fromLane="0" toLane="0"/>

    <connection from="gneE313" to="gneE299" fromLane="0" toLane="0"/>
    <connection from="gneE313" to="gneE319" fromLane="0" toLane="0"/>

    <connection from="gneE314" to="gneE278" fromLane="0" toLane="0"/>

    <connection from="gneE315" to="gneE52" fromLane="0" toLane="0"/>

    <connection from="gneE316" to="gneE211" fromLane="0" toLane="0"/>

    <connection from="gneE317" to="gneE305" fromLane="0" toLane="0"/>
    <connection from="gneE317" to="gneE288" fromLane="0" toLane="0"/>

    <connection from="gneE318" to="gneE306" fromLane="0" toLane="0"/>
    <connection from="gneE318" to="gneE289" fromLane="0" toLane="0"/>

    <connection from="gneE319" to="gneE307" fromLane="0" toLane="0"/>
    <connection from="gneE319" to="gneE290" fromLane="0" toLane="0"/>

    <connection from="gneE322" to="gneE314" fromLane="0" toLane="0"/>
    <connection from="gneE322" to="gneE298" fromLane="0" toLane="0"/>

    <connection from="gneE323" to="gneE315" fromLane="0" toLane="0"/>
    <connection from="gneE323" to="gneE297" fromLane="0" toLane="0"/>

    <connection from="gneE324" to="gneE316" fromLane="0" toLane="0"/>
    <connection from="gneE324" to="gneE296" fromLane="0" toLane="0"/>

    <connection from="gneE325" to="gneE33" fromLane="0" toLane="0"/>

    <connection from="gneE326" to="gneE34" fromLane="0" toLane="0"/>

    <connection from="gneE327" to="gneE35" fromLane="0" toLane="0"/>

    <connection from="gneE328" to="gneE41" fromLane="0" toLane="0"/>

    <connection from="gneE33" to="gneE189" fromLane="0" toLane="0"/>
    <connection from="gneE33" to="gneE194" fromLane="0" toLane="0"/>
    <connection from="gneE33" to="gneE341" fromLane="0" toLane="0"/>

    <connection from="gneE330" to="gneE39" fromLane="0" toLane="0"/>

    <connection from="gneE331" to="gneE106" fromLane="0" toLane="0"/>

    <connection from="gneE332" to="gneE103" fromLane="0" toLane="0"/>

    <connection from="gneE333" to="gneE143" fromLane="0" toLane="0"/>

    <connection from="gneE334" to="gneE145" fromLane="0" toLane="0"/>

    <connection from="gneE335" to="gneE158" fromLane="0" toLane="0"/>

    <connection from="gneE336" to="gneE160" fromLane="0" toLane="0"/>

    <connection from="gneE337" to="gneE154" fromLane="0" toLane="0"/>

    <connection from="gneE338" to="gneE152" fromLane="0" toLane="0"/>

    <connection from="gneE34" to="gneE193" fromLane="0" toLane="0"/>
    <connection from="gneE34" to="gneE190" fromLane="0" toLane="0"/>
    <connection from="gneE34" to="gneE339" fromLane="0" toLane="0"/>

    <connection from="gneE35" to="gneE340" fromLane="0" toLane="0"/>
    <connection from="gneE35" to="gneE192" fromLane="0" toLane="0"/>
    <connection from="gneE35" to="gneE191" fromLane="0" toLane="0"/>

    <connection from="gneE39" to="gneE183" fromLane="0" toLane="0"/>
    <connection from="gneE39" to="gneE185" fromLane="0" toLane="0"/>
    <connection from="gneE39" to="gneE344" fromLane="0" toLane="0"/>

    <connection from="gneE40" to="gneE184" fromLane="0" toLane="0"/>
    <connection from="gneE40" to="gneE182" fromLane="0" toLane="0"/>
    <connection from="gneE40" to="gneE187" fromLane="0" toLane="0"/>

    <connection from="gneE41" to="gneE345" fromLane="0" toLane="0"/>
    <connection from="gneE41" to="gneE186" fromLane="0" toLane="0"/>
    <connection from="gneE41" to="gneE181" fromLane="0" toLane="0"/>

    <connection from="gneE45" to="gneE334" fromLane="0" toLane="0"/>
    <connection from="gneE45" to="gneE166" fromLane="0" toLane="0"/>
    <connection from="gneE45" to="gneE142" fromLane="0" toLane="0"/>

    <connection from="gneE46" to="gneE168" fromLane="0" toLane="0"/>
    <connection from="gneE46" to="gneE141" fromLane="0" toLane="0"/>
    <connection from="gneE46" to="gneE167" fromLane="0" toLane="0"/>

    <connection from="gneE47" to="gneE140" fromLane="0" toLane="0"/>
    <connection from="gneE47" to="gneE169" fromLane="0" toLane="0"/>
    <connection from="gneE47" to="gneE333" fromLane="0" toLane="0"/>

    <connection from="gneE48" to="gneE331" fromLane="0" toLane="0"/>
    <connection from="gneE48" to="gneE102" fromLane="0" toLane="0"/>
    <connection from="gneE48" to="gneE96" fromLane="0" toLane="0"/>

    <connection from="gneE49" to="gneE100" fromLane="0" toLane="0"/>
    <connection from="gneE49" to="gneE97" fromLane="0" toLane="0"/>
    <connection from="gneE49" to="gneE101" fromLane="0" toLane="0"/>

    <connection from="gneE50" to="gneE98" fromLane="0" toLane="0"/>
    <connection from="gneE50" to="gneE99" fromLane="0" toLane="0"/>
    <connection from="gneE50" to="gneE332" fromLane="0" toLane="0"/>

    <connection from="gneE52" to="gneE201" fromLane="0" toLane="0"/>
    <connection from="gneE52" to="gneE198" fromLane="0" toLane="0"/>
    <connection from="gneE52" to="gneE203" fromLane="0" toLane="0"/>

    <connection from="gneE54" to="gneE335" fromLane="0" toLane="0"/>
    <connection from="gneE54" to="gneE165" fromLane="0" toLane="0"/>
    <connection from="gneE54" to="gneE157" fromLane="0" toLane="0"/>

    <connection from="gneE55" to="gneE163" fromLane="0" toLane="0"/>
    <connection from="gneE55" to="gneE156" fromLane="0" toLane="0"/>
    <connection from="gneE55" to="gneE164" fromLane="0" toLane="0"/>

    <connection from="gneE56" to="gneE155" fromLane="0" toLane="0"/>
    <connection from="gneE56" to="gneE162" fromLane="0" toLane="0"/>
    <connection from="gneE56" to="gneE336" fromLane="0" toLane="0"/>

    <connection from="gneE58" to="gneE176" fromLane="0" toLane="0"/>
    <connection from="gneE58" to="gneE177" fromLane="0" toLane="0"/>
    <connection from="gneE58" to="gneE349" fromLane="0" toLane="0"/>

    <connection from="gneE59" to="gneE178" fromLane="0" toLane="0"/>
    <connection from="gneE59" to="gneE175" fromLane="0" toLane="0"/>
    <connection from="gneE59" to="gneE179" fromLane="0" toLane="0"/>

    <connection from="gneE61" to="gneE338" fromLane="0" toLane="0"/>
    <connection from="gneE61" to="gneE173" fromLane="0" toLane="0"/>
    <connection from="gneE61" to="gneE148" fromLane="0" toLane="0"/>

    <connection from="gneE62" to="gneE171" fromLane="0" toLane="0"/>
    <connection from="gneE62" to="gneE149" fromLane="0" toLane="0"/>
    <connection from="gneE62" to="gneE172" fromLane="0" toLane="0"/>

    <connection from="gneE63" to="gneE150" fromLane="0" toLane="0"/>
    <connection from="gneE63" to="gneE170" fromLane="0" toLane="0"/>
    <connection from="gneE63" to="gneE337" fromLane="0" toLane="0"/>

    <connection from="gneE96" to="gneE103" fromLane="0" toLane="0"/>

    <connection from="gneE97" to="gneE104" fromLane="0" toLane="0"/>

    <connection from="gneE98" to="gneE106" fromLane="0" toLane="0"/>

    <connection from="gneE99" to="gneE104" fromLane="0" toLane="0"/>

</connections>
