<?xml version="1.0" encoding="UTF-8"?>

<!-- generated on 30-May-18 2:25:16 PM by Netedit Version 0.32.0
<?xml version="1.0" encoding="UTF-8"?>

<configuration xmlns:xsi="http://www.w3.org/2001/XMLSchema-instance" xsi:noNamespaceSchemaLocation="http://sumo.dlr.de/xsd/netconvertConfiguration.xsd">

    <input>
        <sumo-net-file value="C:\Users\UnPerson\Documents\Knowledge%20Engineering\Project%202.2\Project%202.2\core\assets\MapXmls\AZ\az.net.xml"/>
    </input>

    <output>
        <output-file value="C:\Users\UnPerson\Documents\Knowledge%20Engineering\Project%202.2\Project%202.2\core\assets\MapXmls\AZ\az.net.xml"/>
        <plain-output-prefix value="C:\Users\UnPerson\Documents\Knowledge%20Engineering\Project%202.2\Project%202.2\core\assets\MapXmls\AZ\TempeSmall"/>
    </output>

    <processing>
        <no-turnarounds value="true"/>
        <offset.disable-normalization value="true"/>
        <lefthand value="false"/>
        <junctions.corner-detail value="0"/>
        <rectangular-lane-cut value="false"/>
        <walkingareas value="false"/>
    </processing>

</configuration>
-->

<nodes version="0.27" xmlns:xsi="http://www.w3.org/2001/XMLSchema-instance" xsi:noNamespaceSchemaLocation="http://sumo.dlr.de/xsd/nodes_file.xsd">
    <location netOffset="-408773.96,-3682300.97" convBoundary="3177.65,3207.55,8981.50,14255.98" origBoundary="-111.982236,33.274715,-111.824639,33.405041" projParameter="+proj=utm +zone=12 +ellps=WGS84 +datum=WGS84 +units=m +no_defs"/>

    <node id="1448545227" x="4825.09" y="6416.76" type="priority"/>
    <node id="1594788066" x="5350.73" y="4476.50" type="priority"/>
    <node id="1594788068" x="5350.44" y="4444.15" type="priority"/>
    <node id="1594788070" x="5350.85" y="4434.21" type="priority"/>
    <node id="1789501259" x="3195.23" y="3471.40" type="priority"/>
    <node id="1789501261" x="3195.36" y="3488.17" type="priority"/>
    <node id="1789501264" x="3546.54" y="3932.79" type="priority"/>
    <node id="1789501265" x="3540.00" y="3937.77" type="priority"/>
    <node id="1799680656" x="4274.54" y="4746.40" type="priority"/>
    <node id="2093037284" x="6423.87" y="5066.42" type="priority"/>
    <node id="2093037290" x="6415.47" y="4026.26" type="priority"/>
    <node id="2093037295" x="6420.92" y="4843.26" type="priority"/>
    <node id="2093037296" x="6403.07" y="4025.86" type="priority"/>
    <node id="2093037303" x="6425.84" y="5280.14" type="priority"/>
    <node id="2093037308" x="6400.63" y="3607.76" type="priority"/>
    <node id="2093037309" x="6405.50" y="3221.49" type="priority"/>
    <node id="2093037311" x="6418.14" y="4329.86" type="priority"/>
    <node id="2093037313" x="6427.70" y="5524.12" type="priority"/>
    <node id="2093037315" x="6413.16" y="3554.88" type="priority"/>
    <node id="2093037317" x="6401.85" y="3877.75" type="priority"/>
    <node id="2093037318" x="6411.82" y="3608.48" type="priority"/>
    <node id="2093037320" x="6409.65" y="4843.26" type="priority"/>
    <node id="2093037321" x="6413.09" y="3877.54" type="priority"/>
    <node id="2093037322" x="6419.01" y="4485.45" type="priority"/>
    <node id="2093037324" x="6393.41" y="3221.17" type="priority"/>
    <node id="2139420455" x="3220.60" y="4837.23" type="priority"/>
    <node id="2139420484" x="3620.32" y="4840.00" type="priority"/>
    <node id="2139420496" x="5246.82" y="4830.17" type="priority"/>
    <node id="2139420497" x="5189.98" y="4830.68" type="priority"/>
    <node id="2139420499" x="5424.24" y="4829.39" type="priority"/>
    <node id="2139420502" x="5628.97" y="4828.45" type="priority"/>
    <node id="2139420503" x="5712.58" y="4827.86" type="priority"/>
    <node id="2139420505" x="4023.45" y="4843.49" type="priority"/>
    <node id="2139420508" x="4415.54" y="4840.80" type="priority"/>
    <node id="2139420510" x="3620.39" y="4848.17" type="priority"/>
    <node id="2139420514" x="4833.58" y="4838.09" type="priority"/>
    <node id="2139420518" x="4632.12" y="4840.42" type="priority"/>
    <node id="2139420522" x="6024.80" y="4830.33" type="priority"/>
    <node id="2139420530" x="6409.64" y="4828.32" type="priority"/>
    <node id="2139420532" x="6420.97" y="4828.32" type="priority"/>
    <node id="2139420541" x="4415.61" y="4848.94" type="priority"/>
    <node id="2139420549" x="6024.76" y="4837.61" type="priority"/>
    <node id="2139420573" x="4832.99" y="4867.73" type="priority"/>
    <node id="2262911699" x="5024.19" y="4038.02" type="priority"/>
    <node id="2262911731" x="5028.60" y="4072.11" type="priority"/>
    <node id="2262911853" x="4750.19" y="4453.53" type="priority"/>
    <node id="2262911863" x="4754.29" y="4543.80" type="priority"/>
    <node id="2262911865" x="4641.11" y="4545.43" type="priority"/>
    <node id="2262911874" x="4821.16" y="4675.79" type="priority"/>
    <node id="2262911881" x="4643.68" y="4710.08" type="priority"/>
    <node id="2281493750" x="4628.36" y="4039.55" type="priority"/>
    <node id="2281493752" x="4644.63" y="4039.56" type="priority"/>
    <node id="2367837849" x="3177.65" y="3244.14" type="priority"/>
    <node id="2367837856" x="3182.67" y="3460.92" type="priority"/>
    <node id="2367837859" x="3183.34" y="3487.97" type="priority"/>
    <node id="2367837862" x="3187.63" y="3715.25" type="priority"/>
    <node id="2367837864" x="3190.00" y="3894.17" type="priority"/>
    <node id="2367837870" x="3207.35" y="4042.66" type="priority"/>
    <node id="2367837872" x="3193.76" y="4043.05" type="priority"/>
    <node id="2367837876" x="3195.44" y="4161.91" type="priority"/>
    <node id="2367837880" x="3200.10" y="4398.17" type="priority"/>
    <node id="2367837889" x="3204.58" y="4661.79" type="priority"/>
    <node id="2367837895" x="3208.33" y="4837.27" type="priority"/>
    <node id="2367837904" x="3208.26" y="4852.22" type="priority"/>
    <node id="2367837912" x="3213.93" y="5012.86" type="priority"/>
    <node id="2479790977" x="5215.72" y="3427.66" type="priority"/>
    <node id="2479790987" x="5207.09" y="3439.46" type="priority"/>
    <node id="2479791020" x="5516.10" y="6129.65" type="priority"/>
    <node id="2479791021" x="5535.47" y="6129.99" type="priority"/>
    <node id="2479791023" x="5534.68" y="6133.00" type="priority"/>
    <node id="2479791029" x="5527.20" y="6138.64" type="priority"/>
    <node id="2479791048" x="5483.76" y="6254.62" type="priority"/>
    <node id="2479791052" x="5566.72" y="6258.43" type="priority"/>
    <node id="2479791053" x="5478.11" y="6260.12" type="priority"/>
    <node id="2479791054" x="5589.24" y="6259.49" type="priority"/>
    <node id="2479791080" x="5459.82" y="6380.53" type="priority"/>
    <node id="2479791084" x="5566.31" y="6382.09" type="priority"/>
    <node id="2479791086" x="5480.73" y="6386.01" type="priority"/>
    <node id="2479791091" x="5587.54" y="6386.55" type="priority"/>
    <node id="255716142" x="3199.64" y="3715.05" type="priority"/>
    <node id="314679485" x="4213.83" y="4655.15" type="priority"/>
    <node id="314679569" x="4784.38" y="4392.38" type="priority"/>
    <node id="314679697" x="4271.55" y="4409.69" type="priority"/>
    <node id="314679793" x="4259.17" y="4275.39" type="priority"/>
    <node id="314682940" x="4453.38" y="4101.86" type="priority"/>
    <node id="314683516" x="3988.31" y="4277.03" type="priority"/>
    <node id="314684067" x="4212.83" y="4275.80" type="priority"/>
    <node id="314684215" x="4055.19" y="4394.92" type="priority"/>
    <node id="314684295" x="4163.84" y="4427.35" type="priority"/>
    <node id="314684346" x="4003.39" y="4354.83" type="priority"/>
    <node id="314685028" x="3996.54" y="4392.27" type="priority"/>
    <node id="314687797" x="5261.78" y="4704.24" type="priority"/>
    <node id="314687836" x="5712.58" y="4842.80" type="priority"/>
    <node id="314688392" x="5593.72" y="3438.97" type="priority"/>
    <node id="3151939695" x="5590.91" y="3231.17" type="priority"/>
    <node id="315620556" x="6487.85" y="6067.66" type="priority"/>
    <node id="315643264" x="5631.50" y="6063.20" type="priority"/>
    <node id="315702698" x="6412.44" y="5066.26" type="priority"/>
    <node id="315708631" x="6457.05" y="5065.11" type="priority"/>
    <node id="315709783" x="5332.43" y="5020.70" type="priority"/>
    <node id="315709831" x="5434.69" y="5020.58" type="priority"/>
    <node id="315714314" x="5225.45" y="5818.61" type="priority"/>
    <node id="315719112" x="5157.97" y="5777.06" type="priority"/>
    <node id="315890363" x="4142.98" y="6271.36" type="priority"/>
    <node id="315890652" x="4153.76" y="6225.95" type="priority"/>
    <node id="315898003" x="3540.48" y="5813.22" type="priority"/>
    <node id="315898467" x="3521.76" y="5775.21" type="priority"/>
    <node id="315985982" x="4021.69" y="4913.17" type="priority"/>
    <node id="315986031" x="4331.23" y="4950.96" type="priority"/>
    <node id="316507979" x="5428.70" y="4202.45" type="priority"/>
    <node id="316507985" x="5415.61" y="4167.57" type="priority"/>
    <node id="316516027" x="3650.72" y="5991.34" type="priority"/>
    <node id="316546732" x="6429.75" y="6453.66" type="priority"/>
    <node id="317689775" x="4131.75" y="6476.38" type="priority"/>
    <node id="317689870" x="3921.87" y="6477.27" type="priority"/>
    <node id="3240668158" x="3287.36" y="4039.27" type="priority"/>
    <node id="3240668372" x="3218.67" y="4744.01" type="priority"/>
    <node id="3240668413" x="3415.11" y="4837.64" type="priority"/>
    <node id="3355313789" x="3848.65" y="3227.67" type="priority"/>
    <node id="3355313790" x="5056.81" y="3222.51" type="priority"/>
    <node id="3355313791" x="6230.43" y="3207.55" type="priority"/>
    <node id="3355313826" x="6405.40" y="3207.78" type="priority"/>
    <node id="3355313827" x="6393.42" y="3207.89" type="priority"/>
    <node id="3355313828" x="5590.76" y="3215.48" type="priority"/>
    <node id="3355313829" x="5229.53" y="3220.56" type="priority"/>
    <node id="3355313831" x="4209.51" y="3225.03" type="priority"/>
    <node id="3355313832" x="3563.01" y="3228.44" type="priority"/>
    <node id="3355313833" x="3191.36" y="3229.36" type="priority"/>
    <node id="3355313834" x="3177.74" y="3229.24" type="priority"/>
    <node id="3365286556" x="8265.77" y="12914.55" type="dead_end"/>
    <node id="3434680939" x="3389.32" y="3243.94" type="priority"/>
    <node id="3434680991" x="3193.96" y="3399.76" type="priority"/>
    <node id="3434756233" x="3710.92" y="3242.83" type="priority"/>
    <node id="3434756234" x="3846.36" y="3242.05" type="priority"/>
    <node id="3434756236" x="4495.54" y="3240.49" type="priority"/>
    <node id="3566398197" x="3590.73" y="3510.41" type="priority"/>
    <node id="3566398203" x="3567.20" y="3522.31" type="priority"/>
    <node id="3566398204" x="3639.99" y="3609.23" type="priority"/>
    <node id="3566398210" x="3524.98" y="3665.38" type="priority"/>
    <node id="3574977608" x="4043.95" y="4637.71" type="priority"/>
    <node id="3583644674" x="3215.24" y="5260.00" type="priority"/>
    <node id="3584203368" x="3201.35" y="3843.94" type="priority"/>
    <node id="3584203369" x="3226.89" y="3844.11" type="priority"/>
    <node id="3584303991" x="3895.61" y="3889.90" type="priority"/>
    <node id="3584306095" x="3969.56" y="3935.99" type="priority"/>
    <node id="372212591" x="4023.43" y="4850.72" type="priority"/>
    <node id="3838759530" x="5169.46" y="4541.43" type="priority"/>
    <node id="3838759531" x="5181.62" y="4542.09" type="priority"/>
    <node id="3838759548" x="3504.53" y="3746.41" type="priority"/>
    <node id="3838780050" x="3251.10" y="4179.32" type="priority"/>
    <node id="390991022" x="5080.76" y="4848.03" type="priority"/>
    <node id="390991711" x="5287.65" y="4321.19" type="priority"/>
    <node id="390991835" x="5425.21" y="4424.95" type="priority"/>
    <node id="390991926" x="4972.32" y="3237.60" type="priority"/>
    <node id="3931750969" x="4020.95" y="6273.16" type="priority"/>
    <node id="3931760727" x="4021.98" y="6345.71" type="priority"/>
    <node id="3931760728" x="4025.06" y="6345.68" type="priority"/>
    <node id="3931760731" x="4018.13" y="6345.62" type="priority"/>
    <node id="3931760732" x="4025.20" y="6353.64" type="priority"/>
    <node id="3931760736" x="4018.18" y="6353.45" type="priority"/>
    <node id="3931760740" x="4021.51" y="6353.68" type="priority"/>
    <node id="3951054764" x="4803.81" y="3849.32" type="priority"/>
    <node id="3951054767" x="4781.71" y="3212.54" type="dead_end"/>
    <node id="3951054769" x="4779.52" y="3475.49" type="priority"/>
    <node id="3951054770" x="4770.67" y="3224.86" type="priority"/>
    <node id="3951054772" x="4782.09" y="3224.19" type="priority"/>
    <node id="3951054777" x="4784.55" y="3637.35" type="priority"/>
    <node id="3951055962" x="4796.17" y="3636.73" type="priority"/>
    <node id="3951055965" x="4787.64" y="3405.36" type="priority"/>
    <node id="3951055967" x="4792.39" y="3846.70" type="priority"/>
    <node id="3951058388" x="4770.60" y="3239.86" type="priority"/>
    <node id="3951058395" x="4782.31" y="3239.77" type="priority"/>
    <node id="3951060177" x="4810.00" y="4039.04" type="priority"/>
    <node id="3951060182" x="4776.70" y="3405.99" type="priority"/>
    <node id="3951060186" x="4798.52" y="4039.10" type="priority"/>
    <node id="3951060324" x="4838.95" y="4853.46" type="priority"/>
    <node id="3951060326" x="4827.11" y="4838.25" type="priority"/>
    <node id="3951060327" x="4813.64" y="4456.42" type="priority"/>
    <node id="3951060329" x="4789.00" y="4456.64" type="priority"/>
    <node id="3951060330" x="4827.48" y="4853.30" type="priority"/>
    <node id="3951060332" x="4827.18" y="4847.57" type="priority"/>
    <node id="3951060912" x="4839.17" y="4847.43" type="priority"/>
    <node id="3951060914" x="4808.80" y="4316.29" type="priority"/>
    <node id="3951060916" x="4824.92" y="4455.86" type="priority"/>
    <node id="3951060918" x="4820.26" y="4315.95" type="priority"/>
    <node id="3951060919" x="4838.84" y="4837.96" type="priority"/>
    <node id="3951060922" x="4820.62" y="4325.64" type="priority"/>
    <node id="3951060923" x="4809.15" y="4325.96" type="priority"/>
    <node id="41223656" x="3249.07" y="4084.45" type="priority"/>
    <node id="41239557" x="4881.02" y="4523.60" type="priority"/>
    <node id="41239562" x="4950.23" y="4294.76" type="priority"/>
    <node id="41245407" x="5290.32" y="6469.25" type="priority"/>
    <node id="41245417" x="5296.36" y="6159.10" type="priority"/>
    <node id="41245420" x="5336.72" y="6115.01" type="priority"/>
    <node id="41245428" x="5380.37" y="5992.17" type="priority"/>
    <node id="41245432" x="5350.83" y="5904.17" type="priority"/>
    <node id="41245435" x="5227.60" y="5882.20" type="priority"/>
    <node id="41330869" x="5474.28" y="6131.29" type="priority"/>
    <node id="41330875" x="5573.34" y="6131.21" type="priority"/>
    <node id="41330885" x="5524.41" y="6470.37" type="priority"/>
    <node id="41330886" x="5524.71" y="6383.78" type="priority"/>
    <node id="41330888" x="5526.09" y="6255.91" type="priority"/>
    <node id="41331491" x="5374.55" y="6146.48" type="priority"/>
    <node id="41331510" x="5317.24" y="5989.55" type="priority"/>
    <node id="41331521" x="5370.50" y="5688.50" type="priority"/>
    <node id="41372699" x="6001.10" y="5394.38" type="priority"/>
    <node id="41372702" x="6000.56" y="5424.61" type="priority"/>
    <node id="41372709" x="5231.52" y="6143.78" type="priority"/>
    <node id="41474707" x="6477.27" y="4329.63" type="priority"/>
    <node id="41493670" x="3286.04" y="4082.17" type="priority"/>
    <node id="41493671" x="3280.63" y="4039.13" type="priority"/>
    <node id="41493676" x="3283.62" y="3993.57" type="priority"/>
    <node id="41493690" x="3245.81" y="3901.55" type="priority"/>
    <node id="41493698" x="3247.47" y="3996.18" type="priority"/>
    <node id="41493730" x="3371.56" y="4376.01" type="priority"/>
    <node id="41493732" x="3348.82" y="4423.93" type="priority"/>
    <node id="41493735" x="3327.66" y="4468.66" type="priority"/>
    <node id="41493737" x="3321.14" y="4543.47" type="priority"/>
    <node id="41493740" x="3329.95" y="4612.37" type="priority"/>
    <node id="41493746" x="3263.49" y="4264.85" type="priority"/>
    <node id="41493748" x="3266.62" y="4345.95" type="priority"/>
    <node id="41493755" x="3278.96" y="4915.74" type="priority"/>
    <node id="41493756" x="3273.63" y="4979.57" type="priority"/>
    <node id="41493760" x="3274.32" y="5055.90" type="priority"/>
    <node id="41493762" x="3273.43" y="5133.05" type="priority"/>
    <node id="41495362" x="7100.68" y="14255.98" type="dead_end"/>
    <node id="41500339" x="4049.48" y="4179.53" type="priority"/>
    <node id="41500344" x="4052.06" y="4269.92" type="priority"/>
    <node id="41500350" x="4053.72" y="4352.78" type="priority"/>
    <node id="41500352" x="4130.34" y="4522.29" type="priority"/>
    <node id="41503527" x="5132.73" y="3445.33" type="priority"/>
    <node id="41510818" x="4630.44" y="4723.08" type="priority"/>
    <node id="41510820" x="4631.75" y="4855.36" type="priority"/>
    <node id="41511915" x="4465.87" y="4726.13" type="priority"/>
    <node id="41511917" x="4581.00" y="4724.17" type="priority"/>
    <node id="41511933" x="3973.06" y="4711.75" type="priority"/>
    <node id="41511935" x="3680.58" y="4706.44" type="priority"/>
    <node id="41511941" x="3630.66" y="4698.65" type="priority"/>
    <node id="41514121" x="4508.42" y="5288.14" type="priority"/>
    <node id="41514129" x="4558.84" y="5297.23" type="priority"/>
    <node id="41514140" x="4772.30" y="5312.82" type="priority"/>
    <node id="41514149" x="4320.15" y="5320.04" type="priority"/>
    <node id="41514164" x="4471.98" y="5411.72" type="priority"/>
    <node id="41514169" x="4115.73" y="5331.41" type="priority"/>
    <node id="41514178" x="4318.97" y="5277.11" type="priority"/>
    <node id="41514480" x="5225.91" y="4476.82" type="priority"/>
    <node id="41514487" x="5599.71" y="4475.88" type="priority"/>
    <node id="41514592" x="3737.26" y="4169.91" type="priority"/>
    <node id="41514593" x="3668.92" y="4211.87" type="priority"/>
    <node id="41514595" x="3596.61" y="4256.26" type="priority"/>
    <node id="41514596" x="3519.84" y="4302.12" type="priority"/>
    <node id="41514601" x="3401.97" y="4300.80" type="priority"/>
    <node id="41514614" x="6385.93" y="4423.96" type="priority"/>
    <node id="41514616" x="6267.15" y="4410.81" type="priority"/>
    <node id="41514619" x="6229.46" y="4382.88" type="priority"/>
    <node id="41514624" x="5976.02" y="4332.11" type="priority"/>
    <node id="41514647" x="4782.10" y="4258.39" type="priority"/>
    <node id="41514648" x="4723.79" y="4260.18" type="priority"/>
    <node id="41514650" x="4458.91" y="4304.70" type="priority"/>
    <node id="41514652" x="4971.58" y="4449.65" type="priority"/>
    <node id="41514660" x="4971.93" y="4488.62" type="priority"/>
    <node id="41514663" x="5076.84" y="4484.48" type="priority"/>
    <node id="41514665" x="5180.27" y="4481.18" type="priority"/>
    <node id="41531492" x="3875.29" y="6353.28" type="priority"/>
    <node id="41531494" x="3973.47" y="6349.09" type="priority"/>
    <node id="41533452" x="4007.49" y="5378.51" type="priority"/>
    <node id="41533460" x="3972.47" y="5304.07" type="priority"/>
    <node id="41533468" x="3779.00" y="6479.37" type="priority"/>
    <node id="41533548" x="3860.48" y="6216.65" type="priority"/>
    <node id="41533550" x="3860.65" y="6145.89" type="priority"/>
    <node id="41533551" x="3856.20" y="6095.83" type="priority"/>
    <node id="41535666" x="6357.96" y="6002.74" type="priority"/>
    <node id="41535668" x="6353.89" y="5903.39" type="priority"/>
    <node id="41535673" x="6352.99" y="5800.82" type="priority"/>
    <node id="41535676" x="6352.13" y="5702.22" type="priority"/>
    <node id="41535720" x="3337.75" y="4082.85" type="priority"/>
    <node id="41535722" x="3338.97" y="4176.90" type="priority"/>
    <node id="41535741" x="3329.74" y="3993.05" type="priority"/>
    <node id="41535743" x="3314.53" y="3900.92" type="priority"/>
    <node id="41552989" x="3466.21" y="12935.66" type="dead_end"/>
    <node id="41556337" x="4896.98" y="3697.94" type="priority"/>
    <node id="41556338" x="4900.24" y="3794.15" type="priority"/>
    <node id="41556340" x="4901.49" y="3846.64" type="priority"/>
    <node id="41556342" x="4903.49" y="3891.15" type="priority"/>
    <node id="41556344" x="4905.91" y="3982.59" type="priority"/>
    <node id="41556347" x="4907.99" y="4038.25" type="priority"/>
    <node id="41556353" x="4982.72" y="4549.74" type="priority"/>
    <node id="41556357" x="4973.11" y="4531.55" type="priority"/>
    <node id="41556361" x="4971.18" y="4404.32" type="priority"/>
    <node id="41556369" x="4852.51" y="3550.40" type="priority"/>
    <node id="41556371" x="4855.67" y="3635.47" type="priority"/>
    <node id="41563439" x="3676.04" y="5426.70" type="priority"/>
    <node id="41563444" x="3769.91" y="5471.19" type="priority"/>
    <node id="41563450" x="3785.77" y="5545.79" type="priority"/>
    <node id="41563660" x="3734.86" y="5736.46" type="priority"/>
    <node id="41563662" x="3734.02" y="5819.96" type="priority"/>
    <node id="41563665" x="3733.07" y="5908.49" type="priority"/>
    <node id="41563667" x="3733.77" y="5985.61" type="priority"/>
    <node id="41563669" x="3735.36" y="6073.06" type="priority"/>
    <node id="41563677" x="3701.81" y="6412.65" type="priority"/>
    <node id="41563678" x="3701.08" y="6154.23" type="priority"/>
    <node id="41563732" x="3760.75" y="5304.39" type="priority"/>
    <node id="41563740" x="3744.45" y="5394.27" type="priority"/>
    <node id="41564390" x="5275.89" y="3444.05" type="priority"/>
    <node id="41564391" x="5538.60" y="3441.05" type="priority"/>
    <node id="41565835" x="3420.19" y="4186.28" type="priority"/>
    <node id="41565842" x="3512.68" y="4606.16" type="priority"/>
    <node id="41565844" x="3509.95" y="4554.54" type="priority"/>
    <node id="41565848" x="3471.19" y="4914.95" type="priority"/>
    <node id="41565850" x="3476.27" y="4946.72" type="priority"/>
    <node id="41566636" x="4564.05" y="4177.30" type="priority"/>
    <node id="41566639" x="4781.66" y="4176.09" type="priority"/>
    <node id="41566648" x="6417.28" y="4147.89" type="priority"/>
    <node id="41566649" x="6474.08" y="4147.54" type="priority"/>
    <node id="41566709" x="5213.66" y="4266.96" type="priority"/>
    <node id="41566711" x="5114.59" y="4267.84" type="priority"/>
    <node id="41566716" x="5089.06" y="4287.14" type="priority"/>
    <node id="41566773" x="3893.35" y="4056.87" type="priority"/>
    <node id="41566775" x="3816.38" y="4085.31" type="priority"/>
    <node id="41566798" x="6191.36" y="4244.03" type="priority"/>
    <node id="41566799" x="5973.67" y="4245.45" type="priority"/>
    <node id="41566819" x="6354.29" y="4277.90" type="priority"/>
    <node id="41566820" x="6275.01" y="4292.61" type="priority"/>
    <node id="41573831" x="4830.94" y="5119.45" type="priority"/>
    <node id="41573833" x="4830.43" y="5263.71" type="priority"/>
    <node id="41573836" x="4827.79" y="5662.51" type="priority"/>
    <node id="41573837" x="4828.03" y="5868.26" type="priority"/>
    <node id="41573839" x="4828.21" y="6068.63" type="priority"/>
    <node id="41573841" x="4824.61" y="6471.01" type="priority"/>
    <node id="41586552" x="5766.40" y="4697.90" type="priority"/>
    <node id="41586553" x="5784.68" y="4778.06" type="priority"/>
    <node id="41588018" x="4273.42" y="6474.55" type="priority"/>
    <node id="41588020" x="4272.89" y="6415.71" type="priority"/>
    <node id="41588022" x="4267.37" y="6334.66" type="priority"/>
    <node id="41588026" x="4233.25" y="6271.35" type="priority"/>
    <node id="41588317" x="4282.98" y="6204.91" type="priority"/>
    <node id="41588323" x="4299.05" y="6125.25" type="priority"/>
    <node id="41588329" x="4292.69" y="6040.23" type="priority"/>
    <node id="41588333" x="4283.97" y="5958.40" type="priority"/>
    <node id="41588335" x="4272.05" y="5875.81" type="priority"/>
    <node id="41591199" x="4656.99" y="5552.41" type="priority"/>
    <node id="41591202" x="4772.74" y="5541.83" type="priority"/>
    <node id="41599668" x="4726.59" y="4323.90" type="priority"/>
    <node id="41599670" x="4728.40" y="4386.51" type="priority"/>
    <node id="41599674" x="4777.74" y="4095.00" type="priority"/>
    <node id="41601392" x="4581.74" y="4817.35" type="priority"/>
    <node id="41601395" x="4583.78" y="4476.88" type="priority"/>
    <node id="41601396" x="4585.29" y="4557.19" type="priority"/>
    <node id="41601398" x="4585.75" y="4639.17" type="priority"/>
    <node id="41601402" x="4562.82" y="4039.74" type="priority"/>
    <node id="41601403" x="4561.70" y="4093.82" type="priority"/>
    <node id="41601405" x="4563.64" y="4221.05" type="priority"/>
    <node id="41606203" x="5224.84" y="6471.43" type="priority"/>
    <node id="41606290" x="5486.67" y="13637.78" type="dead_end"/>
    <node id="41610935" x="3971.38" y="4792.09" type="priority"/>
    <node id="41610936" x="3666.92" y="4786.08" type="priority"/>
    <node id="41610939" x="4466.69" y="4818.38" type="priority"/>
    <node id="41610942" x="4019.76" y="4751.10" type="priority"/>
    <node id="41610943" x="3972.61" y="4750.73" type="priority"/>
    <node id="41610944" x="4414.40" y="4778.28" type="priority"/>
    <node id="41610946" x="4465.82" y="4778.54" type="priority"/>
    <node id="41611994" x="4299.43" y="4967.94" type="priority"/>
    <node id="41613090" x="5458.81" y="4626.63" type="priority"/>
    <node id="41613091" x="5569.87" y="4625.65" type="priority"/>
    <node id="41613092" x="5624.19" y="4625.17" type="priority"/>
    <node id="41613095" x="5679.61" y="4623.25" type="priority"/>
    <node id="41613097" x="5904.10" y="4563.06" type="priority"/>
    <node id="41613100" x="5388.38" y="4702.81" type="priority"/>
    <node id="41613103" x="5260.81" y="4627.60" type="priority"/>
    <node id="41613174" x="6162.71" y="4532.17" type="priority"/>
    <node id="41613176" x="5962.29" y="4496.06" type="priority"/>
    <node id="41613179" x="4409.30" y="4476.14" type="priority"/>
    <node id="41613180" x="4345.76" y="4486.96" type="priority"/>
    <node id="41613217" x="3960.92" y="4517.02" type="priority"/>
    <node id="41613224" x="3642.11" y="4516.71" type="priority"/>
    <node id="41613227" x="3590.32" y="4533.88" type="priority"/>
    <node id="41613241" x="3441.81" y="4544.77" type="priority"/>
    <node id="41613246" x="6386.92" y="4587.46" type="priority"/>
    <node id="41613251" x="6147.98" y="4567.31" type="priority"/>
    <node id="41613254" x="4460.21" y="4478.53" type="priority"/>
    <node id="41615684" x="3822.90" y="4628.81" type="priority"/>
    <node id="41615686" x="3823.22" y="4575.52" type="priority"/>
    <node id="41615689" x="6403.13" y="4183.40" type="priority"/>
    <node id="41615691" x="6353.48" y="4185.65" type="priority"/>
    <node id="41615695" x="6271.32" y="4160.61" type="priority"/>
    <node id="41615697" x="6188.80" y="4162.91" type="priority"/>
    <node id="41615699" x="5973.31" y="4163.22" type="priority"/>
    <node id="41626534" x="5570.01" y="4550.11" type="priority"/>
    <node id="41626535" x="5570.18" y="4701.51" type="priority"/>
    <node id="41626541" x="5646.07" y="5088.17" type="priority"/>
    <node id="41626552" x="5781.58" y="5324.75" type="priority"/>
    <node id="41626557" x="5563.72" y="4275.80" type="priority"/>
    <node id="41626558" x="5564.04" y="4311.59" type="priority"/>
    <node id="41626563" x="5565.08" y="4395.37" type="priority"/>
    <node id="41626568" x="5602.01" y="4550.21" type="priority"/>
    <node id="41626572" x="5536.97" y="3276.85" type="priority"/>
    <node id="41626573" x="5537.07" y="3357.55" type="priority"/>
    <node id="41626577" x="5541.76" y="3522.01" type="priority"/>
    <node id="41626580" x="5542.62" y="3604.74" type="priority"/>
    <node id="41626584" x="5607.42" y="4700.89" type="priority"/>
    <node id="41626586" x="5606.72" y="4775.34" type="priority"/>
    <node id="41626590" x="5522.64" y="3691.97" type="priority"/>
    <node id="41626591" x="5394.55" y="3864.51" type="priority"/>
    <node id="41631060" x="4023.82" y="5150.13" type="priority"/>
    <node id="41631063" x="4070.16" y="5150.51" type="priority"/>
    <node id="41631069" x="4225.15" y="5149.92" type="priority"/>
    <node id="41631073" x="4325.89" y="5156.97" type="priority"/>
    <node id="41631077" x="4453.08" y="5174.91" type="priority"/>
    <node id="41631081" x="4555.46" y="5187.52" type="priority"/>
    <node id="41631089" x="4790.71" y="5198.87" type="priority"/>
    <node id="41632074" x="6027.27" y="6463.64" type="priority"/>
    <node id="41632076" x="5678.22" y="6469.10" type="priority"/>
    <node id="41632082" x="5032.31" y="6470.75" type="priority"/>
    <node id="41632088" x="4624.88" y="6471.40" type="priority"/>
    <node id="41632092" x="4364.43" y="6474.43" type="priority"/>
    <node id="41632094" x="4021.80" y="6476.80" type="priority"/>
    <node id="41632096" x="3838.07" y="6477.66" type="priority"/>
    <node id="41632210" x="7870.85" y="13058.25" type="dead_end"/>
    <node id="41632681" x="4355.60" y="4514.70" type="priority"/>