<?xml version="1.0" encoding="UTF-8"?>

<!-- generated on 30-May-18 2:25:16 PM by Netedit Version 0.32.0
<?xml version="1.0" encoding="UTF-8"?>

<configuration xmlns:xsi="http://www.w3.org/2001/XMLSchema-instance" xsi:noNamespaceSchemaLocation="http://sumo.dlr.de/xsd/netconvertConfiguration.xsd">

    <input>
        <sumo-net-file value="C:\Users\UnPerson\Documents\Knowledge%20Engineering\Project%202.2\Project%202.2\core\assets\MapXmls\AZ\az.net.xml"/>
    </input>

    <output>
        <output-file value="C:\Users\UnPerson\Documents\Knowledge%20Engineering\Project%202.2\Project%202.2\core\assets\MapXmls\AZ\az.net.xml"/>
        <plain-output-prefix value="C:\Users\UnPerson\Documents\Knowledge%20Engineering\Project%202.2\Project%202.2\core\assets\MapXmls\AZ\TempeSmall"/>
    </output>

    <processing>
        <no-turnarounds value="true"/>
        <offset.disable-normalization value="true"/>
        <lefthand value="false"/>
        <junctions.corner-detail value="0"/>
        <rectangular-lane-cut value="false"/>
        <walkingareas value="false"/>
    </processing>

</configuration>
-->

<tlLogics version="0.27" xmlns:xsi="http://www.w3.org/2001/XMLSchema-instance" xsi:noNamespaceSchemaLocation="http://sumo.dlr.de/xsd/tllogic_file.xsd">
</tlLogics>
