<?xml version="1.0" encoding="UTF-8"?>

<!-- generated on 16/05/2018 14:18:53 by Netedit Version 0.32.0
<?xml version="1.0" encoding="UTF-8"?>

<configuration xmlns:xsi="http://www.w3.org/2001/XMLSchema-instance" xsi:noNamespaceSchemaLocation="http://sumo.dlr.de/xsd/netconvertConfiguration.xsd">

    <input>
        <sumo-net-file value="C:\Users\Abel\Documents\School\Year%202\Project%202-2\MapXmls\Turbine%202\Turbine2.net.xml"/>
    </input>

    <output>
        <output-file value="C:\Users\Abel\Documents\School\Year%202\Project%202-2\MapXmls\Turbine%202\Turbine2.net.xml"/>
        <plain-output-prefix value="C:\Users\Abel\Documents\School\Year%202\Project%202-2\MapXmls\Turbine%202\Turbine2"/>
    </output>

    <processing>
        <no-turnarounds value="true"/>
        <offset.disable-normalization value="true"/>
        <lefthand value="false"/>
        <junctions.corner-detail value="0"/>
        <rectangular-lane-cut value="false"/>
        <walkingareas value="false"/>
    </processing>

</configuration>
-->

<connections version="0.27" xmlns:xsi="http://www.w3.org/2001/XMLSchema-instance" xsi:noNamespaceSchemaLocation="http://sumo.dlr.de/xsd/connections_file.xsd">
    <connection from="-182386603#0" to="182386561#3" fromLane="0" toLane="0"/>
    <connection from="-182386603#0" to="182386603#0" fromLane="0" toLane="0"/>

    <connection from="-182386603#1" to="-210481593#1" fromLane="0" toLane="0"/>
    <connection from="-182386603#1" to="-182386603#0" fromLane="0" toLane="0"/>
    <connection from="-182386603#1" to="182386603#1" fromLane="0" toLane="0"/>

    <connection from="-210481593#0" to="182386561#5" fromLane="0" toLane="0"/>
    <connection from="-210481593#0" to="210481593#0" fromLane="0" toLane="0"/>

    <connection from="-210481593#1" to="-496983642" fromLane="0" toLane="0"/>
    <connection from="-210481593#1" to="-210481593#0" fromLane="0" toLane="0"/>
    <connection from="-210481593#1" to="210481593#1" fromLane="0" toLane="0"/>

    <connection from="-244671310#0" to="244671310#0" fromLane="0" toLane="0"/>

    <connection from="-244671310#1" to="-244671310#0" fromLane="0" toLane="0"/>
    <connection from="-244671310#1" to="496948748" fromLane="0" toLane="0"/>
    <connection from="-244671310#1" to="244671310#1" fromLane="0" toLane="0"/>

    <connection from="-305425748#0" to="305425748#0" fromLane="0" toLane="0"/>

    <connection from="-305425748#1" to="-307283000" fromLane="0" toLane="0"/>
    <connection from="-305425748#1" to="-305425748#0" fromLane="0" toLane="0"/>
    <connection from="-305425748#1" to="305425748#1" fromLane="0" toLane="0"/>

    <connection from="-305425755#0" to="305425755#0" fromLane="0" toLane="0"/>

    <connection from="-305425755#1" to="-305425755#0" fromLane="0" toLane="0"/>
    <connection from="-305425755#1" to="-305425748#1" fromLane="0" toLane="0"/>
    <connection from="-305425755#1" to="305425755#1" fromLane="0" toLane="0"/>

    <connection from="-307283000" to="307283000" fromLane="0" toLane="0"/>

    <connection from="-307673022" to="307673020#3" fromLane="0" toLane="0"/>
    <connection from="-307673022" to="307673022" fromLane="0" toLane="0"/>

    <connection from="-307673102#0" to="500796792#0" fromLane="0" toLane="0"/>
    <connection from="-307673102#0" to="-307673022" fromLane="0" toLane="0"/>
    <connection from="-307673102#0" to="307673102#0" fromLane="0" toLane="0"/>

    <connection from="-307673102#1" to="-307673102#0" fromLane="0" toLane="0"/>
    <connection from="-307673102#1" to="70174645#0" fromLane="0" toLane="0"/>
    <connection from="-307673102#1" to="307673102#1" fromLane="0" toLane="0"/>

    <connection from="-307673829" to="-307673838" fromLane="0" toLane="0"/>
    <connection from="-307673829" to="307673829" fromLane="0" toLane="0"/>

    <connection from="-307673834" to="182386602#1" fromLane="0" toLane="0"/>
    <connection from="-307673834" to="307673834" fromLane="0" toLane="0"/>

    <connection from="-307673838" to="307673838" fromLane="0" toLane="0"/>

    <connection from="-496943808" to="496943827#3" fromLane="0" toLane="0"/>
    <connection from="-496943808" to="496943808" fromLane="0" toLane="0"/>

    <connection from="-496943819" to="496943821" fromLane="0" toLane="0"/>
    <connection from="-496943819" to="496943819" fromLane="0" toLane="0"/>

    <connection from="-496943826" to="307673824#1" fromLane="0" toLane="0"/>
    <connection from="-496943826" to="496943826" fromLane="0" toLane="0"/>

    <connection from="-496948748" to="244671310#1" fromLane="0" toLane="0"/>
    <connection from="-496948748" to="-244671310#0" fromLane="0" toLane="0"/>
    <connection from="-496948748" to="496948748" fromLane="0" toLane="0"/>

    <connection from="-496983625#0" to="-74964403#1" fromLane="0" toLane="0"/>
    <connection from="-496983625#0" to="74964403#2" fromLane="0" toLane="0"/>
    <connection from="-496983625#0" to="496983625#0" fromLane="0" toLane="0"/>

    <connection from="-496983625#1" to="74965813" fromLane="0" toLane="0"/>
    <connection from="-496983625#1" to="-496983625#0" fromLane="0" toLane="0"/>
    <connection from="-496983625#1" to="496983625#1" fromLane="0" toLane="0"/>

    <connection from="-496983642" to="566785765#3" fromLane="0" toLane="0"/>
    <connection from="-496983642" to="496983642" fromLane="0" toLane="0"/>

    <connection from="-496983645" to="182386561#1" fromLane="0" toLane="0"/>
    <connection from="-496983645" to="496983645" fromLane="0" toLane="0"/>

    <connection from="-496983646" to="182386561#2" fromLane="0" toLane="0"/>
    <connection from="-496983646" to="496983646" fromLane="0" toLane="0"/>

    <connection from="-500796792#0" to="-307673022" fromLane="0" toLane="0"/>
    <connection from="-500796792#0" to="307673102#0" fromLane="0" toLane="0"/>
    <connection from="-500796792#0" to="500796792#0" fromLane="0" toLane="0"/>

    <connection from="-500796792#1" to="-500796792#0" fromLane="0" toLane="0"/>
    <connection from="-500796792#1" to="-500796792#2" fromLane="0" toLane="0"/>
    <connection from="-500796792#1" to="500796792#1" fromLane="0" toLane="0"/>

    <connection from="-500796792#2" to="-500796792#1" fromLane="0" toLane="0"/>
    <connection from="-500796792#2" to="500796792#2" fromLane="0" toLane="0"/>

    <connection from="-502116282" to="502116282" fromLane="0" toLane="0"/>

    <connection from="-502116284" to="502116284" fromLane="0" toLane="0"/>

    <connection from="-70174645#0" to="307673102#1" fromLane="0" toLane="0"/>
    <connection from="-70174645#0" to="-307673102#0" fromLane="0" toLane="0"/>
    <connection from="-70174645#0" to="70174645#0" fromLane="0" toLane="0"/>

    <connection from="-70174645#1" to="-70174645#0" fromLane="0" toLane="0"/>
    <connection from="-70174645#1" to="-496948748" fromLane="0" toLane="0"/>
    <connection from="-70174645#1" to="70174645#1" fromLane="0" toLane="0"/>

    <connection from="-74944731#0" to="74944731#0" fromLane="0" toLane="0"/>

    <connection from="-74944731#1" to="-74944731#0" fromLane="0" toLane="0"/>
    <connection from="-74944731#1" to="-74944747" fromLane="0" toLane="0"/>
    <connection from="-74944731#1" to="74944731#1" fromLane="0" toLane="0"/>

    <connection from="-74944731#2" to="-74944731#1" fromLane="0" toLane="0"/>
    <connection from="-74944731#2" to="-74944736" fromLane="0" toLane="0"/>
    <connection from="-74944731#2" to="74944731#2" fromLane="0" toLane="0"/>

    <connection from="-74944735#0" to="74944735#0" fromLane="0" toLane="0"/>

    <connection from="-74944735#1" to="-74944735#0" fromLane="0" toLane="0"/>
    <connection from="-74944735#1" to="74944787#0" fromLane="0" toLane="0"/>
    <connection from="-74944735#1" to="74944735#1" fromLane="0" toLane="0"/>

    <connection from="-74944735#2" to="74944747" fromLane="0" toLane="0"/>
    <connection from="-74944735#2" to="-74944735#1" fromLane="0" toLane="0"/>
    <connection from="-74944735#2" to="74944735#2" fromLane="0" toLane="0"/>

    <connection from="-74944735#3" to="-74944735#2" fromLane="0" toLane="0"/>
    <connection from="-74944735#3" to="-74944879" fromLane="0" toLane="0"/>
    <connection from="-74944735#3" to="74944735#3" fromLane="0" toLane="0"/>

    <connection from="-74944735#4" to="74944736" fromLane="0" toLane="0"/>
    <connection from="-74944735#4" to="-74944735#3" fromLane="0" toLane="0"/>
    <connection from="-74944735#4" to="74944735#4" fromLane="0" toLane="0"/>

    <connection from="-74944736" to="-74944735#3" fromLane="0" toLane="0"/>
    <connection from="-74944736" to="74944735#4" fromLane="0" toLane="0"/>
    <connection from="-74944736" to="74944736" fromLane="0" toLane="0"/>

    <connection from="-74944747" to="-74944735#1" fromLane="0" toLane="0"/>
    <connection from="-74944747" to="74944735#2" fromLane="0" toLane="0"/>
    <connection from="-74944747" to="74944747" fromLane="0" toLane="0"/>

    <connection from="-74944787#0" to="74944735#1" fromLane="0" toLane="0"/>
    <connection from="-74944787#0" to="-74944735#0" fromLane="0" toLane="0"/>
    <connection from="-74944787#0" to="74944787#0" fromLane="0" toLane="0"/>

    <connection from="-74944787#1" to="74944839#0" fromLane="0" toLane="0"/>
    <connection from="-74944787#1" to="-74944787#0" fromLane="0" toLane="0"/>
    <connection from="-74944787#1" to="74944787#1" fromLane="0" toLane="0"/>

    <connection from="-74944839#0" to="-74944787#0" fromLane="0" toLane="0"/>
    <connection from="-74944839#0" to="74944787#1" fromLane="0" toLane="0"/>
    <connection from="-74944839#0" to="74944839#0" fromLane="0" toLane="0"/>

    <connection from="-74944839#1" to="74944879" fromLane="0" toLane="0"/>
    <connection from="-74944839#1" to="-74944839#0" fromLane="0" toLane="0"/>
    <connection from="-74944839#1" to="74944839#1" fromLane="0" toLane="0"/>

    <connection from="-74944879" to="-74944839#0" fromLane="0" toLane="0"/>
    <connection from="-74944879" to="74944839#1" fromLane="0" toLane="0"/>
    <connection from="-74944879" to="74944879" fromLane="0" toLane="0"/>

    <connection from="-74964403#0" to="496983621" fromLane="0" toLane="0"/>
    <connection from="-74964403#0" to="74964403#0" fromLane="0" toLane="0"/>

    <connection from="-74964403#1" to="-74964403#0" fromLane="0" toLane="0"/>
    <connection from="-74964403#1" to="-74964662" fromLane="0" toLane="0"/>
    <connection from="-74964403#1" to="74964403#1" fromLane="0" toLane="0"/>

    <connection from="-74964403#2" to="496983625#0" fromLane="0" toLane="0"/>
    <connection from="-74964403#2" to="-74964403#1" fromLane="0" toLane="0"/>
    <connection from="-74964403#2" to="74964403#2" fromLane="0" toLane="0"/>

    <connection from="-74964403#3" to="74965693" fromLane="0" toLane="0"/>
    <connection from="-74964403#3" to="-74964403#2" fromLane="0" toLane="0"/>
    <connection from="-74964403#3" to="74964403#3" fromLane="0" toLane="0"/>

    <connection from="-74964403#4" to="-74964403#3" fromLane="0" toLane="0"/>
    <connection from="-74964403#4" to="74964662" fromLane="0" toLane="0"/>
    <connection from="-74964403#4" to="74964403#4" fromLane="0" toLane="0"/>

    <connection from="-74964662" to="74964403#4" fromLane="0" toLane="0"/>
    <connection from="-74964662" to="-74964403#3" fromLane="0" toLane="0"/>
    <connection from="-74964662" to="74964662" fromLane="0" toLane="0"/>

    <connection from="-74965693" to="-74964403#2" fromLane="0" toLane="0"/>
    <connection from="-74965693" to="74964403#3" fromLane="0" toLane="0"/>
    <connection from="-74965693" to="74965693" fromLane="0" toLane="0"/>

    <connection from="-74965813" to="-496983625#0" fromLane="0" toLane="0"/>
    <connection from="-74965813" to="496983625#1" fromLane="0" toLane="0"/>
    <connection from="-74965813" to="74965813" fromLane="0" toLane="0"/>

    <connection from="103341400" to="307631788" fromLane="0" toLane="0"/>
    <connection from="103341400" to="307631788" fromLane="0" toLane="1"/>

    <connection from="171699577" to="307639544" fromLane="0" toLane="0"/>

    <connection from="171699626#0" to="307639524" fromLane="0" toLane="0"/>
    <connection from="171699626#0" to="171699626#1" fromLane="0" toLane="0"/>

    <connection from="171699626#1" to="72894437#0" fromLane="0" toLane="0"/>

    <connection from="182386561#0" to="496983645" fromLane="0" toLane="0"/>
    <connection from="182386561#0" to="182386561#1" fromLane="0" toLane="0"/>

    <connection from="182386561#1" to="496983646" fromLane="0" toLane="0"/>
    <connection from="182386561#1" to="182386561#2" fromLane="0" toLane="0"/>

    <connection from="182386561#2" to="182386603#0" fromLane="0" toLane="0"/>
    <connection from="182386561#2" to="182386561#3" fromLane="0" toLane="0"/>

    <connection from="182386561#3" to="182386561#4" fromLane="0" toLane="0"/>
    <connection from="182386561#3" to="-307673834" fromLane="0" toLane="0"/>

    <connection from="182386561#4" to="210481593#0" fromLane="0" toLane="0"/>
    <connection from="182386561#4" to="182386561#5" fromLane="0" toLane="0"/>

    <connection from="182386561#5" to="566785765#2" fromLane="0" toLane="0"/>

    <connection from="182386602#0" to="182386602#1" fromLane="0" toLane="0"/>
    <connection from="182386602#0" to="307673834" fromLane="0" toLane="0"/>

    <connection from="182386603#0" to="182386603#1" fromLane="0" toLane="0"/>
    <connection from="182386603#0" to="-210481593#1" fromLane="0" toLane="0"/>
    <connection from="182386603#0" to="-182386603#0" fromLane="0" toLane="0"/>

    <connection from="182386603#1" to="-182386603#1" fromLane="0" toLane="0"/>

    <connection from="210481593#0" to="210481593#1" fromLane="0" toLane="0"/>
    <connection from="210481593#0" to="-496983642" fromLane="0" toLane="0"/>
    <connection from="210481593#0" to="-210481593#0" fromLane="0" toLane="0"/>

    <connection from="210481593#1" to="-182386603#0" fromLane="0" toLane="0"/>
    <connection from="210481593#1" to="182386603#1" fromLane="0" toLane="0"/>
    <connection from="210481593#1" to="-210481593#1" fromLane="0" toLane="0"/>

    <connection from="244671310#0" to="496948748" fromLane="0" toLane="0"/>
    <connection from="244671310#0" to="244671310#1" fromLane="0" toLane="0"/>
    <connection from="244671310#0" to="-244671310#0" fromLane="0" toLane="0"/>

    <connection from="244671310#1" to="496948750" fromLane="0" toLane="0"/>
    <connection from="244671310#1" to="-244671310#1" fromLane="0" toLane="0"/>

    <connection from="245390383#0" to="307639533#0" fromLane="0" toLane="0"/>
    <connection from="245390383#0" to="245390383#1" fromLane="0" toLane="0"/>

    <connection from="245390383#1" to="72894443#0" fromLane="0" toLane="0"/>

    <connection from="305425748#0" to="305425748#1" fromLane="0" toLane="0"/>
    <connection from="305425748#0" to="-307283000" fromLane="0" toLane="0"/>
    <connection from="305425748#0" to="-305425748#0" fromLane="0" toLane="0"/>

    <connection from="305425748#1" to="305425755#1" fromLane="0" toLane="0"/>
    <connection from="305425748#1" to="-305425755#0" fromLane="0" toLane="0"/>
    <connection from="305425748#1" to="-305425748#1" fromLane="0" toLane="0"/>

    <connection from="305425755#0" to="-305425748#1" fromLane="0" toLane="0"/>
    <connection from="305425755#0" to="305425755#1" fromLane="0" toLane="0"/>
    <connection from="305425755#0" to="-305425755#0" fromLane="0" toLane="0"/>

    <connection from="305425755#1" to="-307673102#1" fromLane="0" toLane="0"/>
    <connection from="305425755#1" to="-305425755#1" fromLane="0" toLane="0"/>

    <connection from="307283000" to="-305425748#0" fromLane="0" toLane="0"/>
    <connection from="307283000" to="305425748#1" fromLane="0" toLane="0"/>
    <connection from="307283000" to="-307283000" fromLane="0" toLane="0"/>

    <connection from="307627327" to="307639535#0" fromLane="1" toLane="0"/>

    <connection from="307627330" to="307627327" fromLane="0" toLane="0"/>
    <connection from="307627330" to="307627327" fromLane="0" toLane="1"/>

    <connection from="307631788" to="566785765#0" fromLane="0" toLane="0"/>
    <connection from="307631788" to="566785765#0" fromLane="1" toLane="1"/>

    <connection from="307639503" to="501536332#1" fromLane="0" toLane="0"/>
    <connection from="307639503" to="501536332#1" fromLane="0" toLane="1"/>

    <connection from="307639508" to="72894438#1" fromLane="0" toLane="0"/>

    <connection from="307639524" to="566785763#1" fromLane="0" toLane="0"/>

    <connection from="307639526" to="307639508" fromLane="0" toLane="0"/>
    <connection from="307639526" to="307639508" fromLane="1" toLane="1"/>

    <connection from="307639530#0" to="496983620#0" fromLane="0" toLane="0"/>
    <connection from="307639530#0" to="307639530#1" fromLane="0" toLane="0"/>

    <connection from="307639530#1" to="322012185" fromLane="0" toLane="0"/>
    <connection from="307639530#1" to="322012185" fromLane="0" toLane="1"/>
    <connection from="307639530#1" to="501536339#0" fromLane="0" toLane="0"/>

    <connection from="307639531" to="305425748#0" fromLane="0" toLane="0"/>

    <connection from="307639533#0" to="307673824#0" fromLane="0" toLane="0"/>
    <connection from="307639533#0" to="307639533#1" fromLane="0" toLane="0"/>

    <connection from="307639533#1" to="182386602#0" fromLane="0" toLane="0"/>
    <connection from="307639533#1" to="566785765#1" fromLane="0" toLane="0"/>

    <connection from="307639535#0" to="307639535#1" fromLane="0" toLane="0"/>

    <connection from="307639535#1" to="72894442#1" fromLane="0" toLane="0"/>

    <connection from="307639541#0" to="307639531" fromLane="0" toLane="0"/>
    <connection from="307639541#0" to="307639541#1" fromLane="0" toLane="0"/>

    <connection from="307639541#1" to="72894438#1" fromLane="0" toLane="0"/>

    <connection from="307639544" to="566785763#0" fromLane="0" toLane="0"/>

    <connection from="307673020#0" to="496948749" fromLane="0" toLane="0"/>
    <connection from="307673020#0" to="307673020#1" fromLane="0" toLane="0"/>

    <connection from="307673020#1" to="307673020#2" fromLane="0" toLane="0"/>

    <connection from="307673020#2" to="307673022" fromLane="0" toLane="0"/>
    <connection from="307673020#2" to="307673020#3" fromLane="0" toLane="0"/>

    <connection from="307673020#3" to="307673020#0" fromLane="0" toLane="0"/>

    <connection from="307673022" to="307673102#0" fromLane="0" toLane="0"/>
    <connection from="307673022" to="500796792#0" fromLane="0" toLane="0"/>
    <connection from="307673022" to="-307673022" fromLane="0" toLane="0"/>

    <connection from="307673102#0" to="70174645#0" fromLane="0" toLane="0"/>
    <connection from="307673102#0" to="307673102#1" fromLane="0" toLane="0"/>
    <connection from="307673102#0" to="-307673102#0" fromLane="0" toLane="0"/>

    <connection from="307673102#1" to="-305425755#1" fromLane="0" toLane="0"/>
    <connection from="307673102#1" to="-307673102#1" fromLane="0" toLane="0"/>

    <connection from="307673824#0" to="496943826" fromLane="0" toLane="0"/>
    <connection from="307673824#0" to="307673824#1" fromLane="0" toLane="0"/>

    <connection from="307673824#1" to="-307673838" fromLane="0" toLane="0"/>
    <connection from="307673824#1" to="307673829" fromLane="0" toLane="0"/>

    <connection from="307673826" to="307673832#2" fromLane="0" toLane="0"/>

    <connection from="307673829" to="307673826" fromLane="0" toLane="0"/>
    <connection from="307673829" to="-307673829" fromLane="0" toLane="0"/>

    <connection from="307673832#0" to="307673841" fromLane="0" toLane="0"/>
    <connection from="307673832#0" to="307673832#1" fromLane="0" toLane="0"/>

    <connection from="307673832#1" to="307673832#2" fromLane="0" toLane="0"/>

    <connection from="307673832#2" to="307673832#0" fromLane="0" toLane="0"/>

    <connection from="307673833#0" to="-74944731#2" fromLane="0" toLane="0"/>
    <connection from="307673833#0" to="307673833#1" fromLane="0" toLane="0"/>

    <connection from="307673833#1" to="-74944735#4" fromLane="0" toLane="0"/>
    <connection from="307673833#1" to="307673833#2" fromLane="0" toLane="0"/>

    <connection from="307673833#2" to="307673835#1" fromLane="0" toLane="0"/>

    <connection from="307673834" to="182386561#4" fromLane="0" toLane="0"/>
    <connection from="307673834" to="-307673834" fromLane="0" toLane="0"/>

    <connection from="307673835#0" to="307673835#1" fromLane="0" toLane="0"/>

    <connection from="307673835#1" to="307673837#0" fromLane="0" toLane="0"/>
    <connection from="307673835#1" to="307673835#2" fromLane="0" toLane="0"/>

    <connection from="307673835#2" to="307673835#3" fromLane="0" toLane="0"/>

    <connection from="307673835#3" to="496961538#0" fromLane="0" toLane="0"/>
    <connection from="307673835#3" to="307673835#4" fromLane="0" toLane="0"/>

    <connection from="307673835#4" to="307673835#0" fromLane="0" toLane="0"/>

    <connection from="307673837#0" to="-74944839#1" fromLane="0" toLane="0"/>
    <connection from="307673837#0" to="307673837#1" fromLane="0" toLane="0"/>

    <connection from="307673837#1" to="307673835#3" fromLane="0" toLane="0"/>

    <connection from="307673838" to="307673829" fromLane="0" toLane="0"/>
    <connection from="307673838" to="-307673838" fromLane="0" toLane="0"/>

    <connection from="307673841" to="-307673829" fromLane="0" toLane="0"/>
    <connection from="307673841" to="307673826" fromLane="0" toLane="0"/>

    <connection from="308398516" to="-244671310#0" fromLane="0" toLane="0"/>
    <connection from="308398516" to="496948748" fromLane="0" toLane="0"/>
    <connection from="308398516" to="244671310#1" fromLane="0" toLane="0"/>

    <connection from="322012185" to="307639526" fromLane="0" toLane="0"/>
    <connection from="322012185" to="307639526" fromLane="1" toLane="1"/>

    <connection from="496943808" to="-496943808" fromLane="0" toLane="0"/>

    <connection from="496943816" to="496943827#7" fromLane="0" toLane="0"/>

    <connection from="496943818" to="-496943819" fromLane="0" toLane="0"/>
    <connection from="496943818" to="496943816" fromLane="0" toLane="0"/>

    <connection from="496943819" to="496943816" fromLane="0" toLane="0"/>
    <connection from="496943819" to="-496943819" fromLane="0" toLane="0"/>

    <connection from="496943821" to="496943827#5" fromLane="0" toLane="0"/>

    <connection from="496943823" to="496943819" fromLane="0" toLane="0"/>
    <connection from="496943823" to="496943821" fromLane="0" toLane="0"/>

    <connection from="496943824" to="-496943826" fromLane="0" toLane="0"/>
    <connection from="496943824" to="496943825" fromLane="0" toLane="0"/>

    <connection from="496943825" to="496943827#2" fromLane="0" toLane="0"/>

    <connection from="496943826" to="496943825" fromLane="0" toLane="0"/>
    <connection from="496943826" to="-496943826" fromLane="0" toLane="0"/>

    <connection from="496943827#0" to="496943824" fromLane="0" toLane="0"/>
    <connection from="496943827#0" to="496943827#1" fromLane="0" toLane="0"/>

    <connection from="496943827#1" to="496943827#2" fromLane="0" toLane="0"/>

    <connection from="496943827#2" to="496943808" fromLane="0" toLane="0"/>
    <connection from="496943827#2" to="496943827#3" fromLane="0" toLane="0"/>

    <connection from="496943827#3" to="496943823" fromLane="0" toLane="0"/>
    <connection from="496943827#3" to="496943827#4" fromLane="0" toLane="0"/>

    <connection from="496943827#4" to="496943827#5" fromLane="0" toLane="0"/>

    <connection from="496943827#5" to="496943818" fromLane="0" toLane="0"/>
    <connection from="496943827#5" to="496943827#6" fromLane="0" toLane="0"/>

    <connection from="496943827#6" to="496943827#7" fromLane="0" toLane="0"/>

    <connection from="496943827#7" to="496943827#0" fromLane="0" toLane="0"/>

    <connection from="496948748" to="70174645#1" fromLane="0" toLane="0"/>
    <connection from="496948748" to="-70174645#0" fromLane="0" toLane="0"/>
    <connection from="496948748" to="-496948748" fromLane="0" toLane="0"/>

    <connection from="496948749" to="-244671310#1" fromLane="0" toLane="0"/>
    <connection from="496948749" to="496948750" fromLane="0" toLane="0"/>

    <connection from="496948750" to="307673020#2" fromLane="0" toLane="0"/>

    <connection from="496961538#0" to="-502116284" fromLane="0" toLane="0"/>
    <connection from="496961538#0" to="496961538#1" fromLane="0" toLane="0"/>

    <connection from="496961538#1" to="-502116282" fromLane="0" toLane="0"/>
    <connection from="496961538#1" to="496961538#2" fromLane="0" toLane="0"/>

    <connection from="496961538#2" to="566785763#2" fromLane="0" toLane="0"/>

    <connection from="496983619" to="566785263#3" fromLane="0" toLane="1"/>

    <connection from="496983620#0" to="496983619" fromLane="0" toLane="0"/>
    <connection from="496983620#0" to="496983620#1" fromLane="0" toLane="0"/>

    <connection from="496983620#1" to="307639535#1" fromLane="0" toLane="0"/>

    <connection from="496983621" to="566785263#2" fromLane="0" toLane="0"/>

    <connection from="496983622" to="74964403#0" fromLane="0" toLane="0"/>
    <connection from="496983622" to="496983621" fromLane="0" toLane="0"/>

    <connection from="496983623" to="74965764#0" fromLane="0" toLane="0"/>

    <connection from="496983624" to="-496983625#1" fromLane="0" toLane="0"/>
    <connection from="496983624" to="496983623" fromLane="0" toLane="0"/>

    <connection from="496983625#0" to="496983625#1" fromLane="0" toLane="0"/>
    <connection from="496983625#0" to="74965813" fromLane="0" toLane="0"/>
    <connection from="496983625#0" to="-496983625#0" fromLane="0" toLane="0"/>

    <connection from="496983625#1" to="496983623" fromLane="0" toLane="0"/>
    <connection from="496983625#1" to="-496983625#1" fromLane="0" toLane="0"/>

    <connection from="496983642" to="-210481593#0" fromLane="0" toLane="0"/>
    <connection from="496983642" to="210481593#1" fromLane="0" toLane="0"/>
    <connection from="496983642" to="-496983642" fromLane="0" toLane="0"/>

    <connection from="496983645" to="-496983645" fromLane="0" toLane="0"/>

    <connection from="496983646" to="-496983646" fromLane="0" toLane="0"/>

    <connection from="500796792#0" to="-500796792#2" fromLane="0" toLane="0"/>
    <connection from="500796792#0" to="500796792#1" fromLane="0" toLane="0"/>
    <connection from="500796792#0" to="-500796792#0" fromLane="0" toLane="0"/>

    <connection from="500796792#1" to="500796792#2" fromLane="0" toLane="0"/>
    <connection from="500796792#1" to="-500796792#1" fromLane="0" toLane="0"/>

    <connection from="500796792#2" to="500796792#1" fromLane="0" toLane="0"/>
    <connection from="500796792#2" to="-500796792#0" fromLane="0" toLane="0"/>
    <connection from="500796792#2" to="-500796792#2" fromLane="0" toLane="0"/>

    <connection from="501536332#0" to="501536332#1" fromLane="0" toLane="0"/>
    <connection from="501536332#0" to="501536332#1" fromLane="1" toLane="1"/>
    <connection from="501536332#0" to="501536332#1" fromLane="2" toLane="2"/>
    <connection from="501536332#0" to="501536332#1" fromLane="3" toLane="3"/>
    <connection from="501536332#0" to="501536332#1" fromLane="4" toLane="4"/>

    <connection from="501536338" to="566785263#0" fromLane="0" toLane="0"/>
    <connection from="501536338" to="566785263#0" fromLane="1" toLane="1"/>
    <connection from="501536338" to="307639530#0" fromLane="1" toLane="0"/>

    <connection from="501536339#0" to="501536339#1" fromLane="0" toLane="0"/>
    <connection from="501536339#0" to="307639503" fromLane="0" toLane="0"/>

    <connection from="501536339#1" to="566785763#0" fromLane="0" toLane="0"/>

    <connection from="502116282" to="496961538#2" fromLane="0" toLane="0"/>
    <connection from="502116282" to="-502116282" fromLane="0" toLane="0"/>

    <connection from="502116284" to="496961538#1" fromLane="0" toLane="0"/>
    <connection from="502116284" to="-502116284" fromLane="0" toLane="0"/>

    <connection from="566785263#0" to="496983622" fromLane="0" toLane="0"/>
    <connection from="566785263#0" to="566785263#1" fromLane="0" toLane="0"/>
    <connection from="566785263#0" to="566785263#1" fromLane="1" toLane="1"/>

    <connection from="566785263#1" to="566785263#2" fromLane="0" toLane="0"/>
    <connection from="566785263#1" to="566785263#2" fromLane="1" toLane="1"/>

    <connection from="566785263#2" to="566785263#3" fromLane="0" toLane="0"/>
    <connection from="566785263#2" to="566785263#3" fromLane="1" toLane="1"/>

    <connection from="566785263#3" to="496983624" fromLane="0" toLane="0"/>
    <connection from="566785263#3" to="566785263#4" fromLane="0" toLane="0"/>
    <connection from="566785263#3" to="566785263#4" fromLane="1" toLane="1"/>

    <connection from="566785263#4" to="74965764#0" fromLane="0" toLane="0"/>

    <connection from="566785763#0" to="566785763#1" fromLane="0" toLane="0"/>

    <connection from="566785763#1" to="566785763#2" fromLane="0" toLane="0"/>

    <connection from="566785765#0" to="182386602#0" fromLane="0" toLane="0"/>
    <connection from="566785765#0" to="566785765#1" fromLane="0" toLane="0"/>
    <connection from="566785765#0" to="566785765#1" fromLane="1" toLane="1"/>

    <connection from="566785765#1" to="566785765#2" fromLane="0" toLane="0"/>
    <connection from="566785765#1" to="566785765#2" fromLane="1" toLane="1"/>
