<?xml version="1.0" encoding="UTF-8"?>

<!-- generated on 18-Jun-18 4:33:56 PM by Netedit Version 0.32.0
<?xml version="1.0" encoding="UTF-8"?>

<configuration xmlns:xsi="http://www.w3.org/2001/XMLSchema-instance" xsi:noNamespaceSchemaLocation="http://sumo.dlr.de/xsd/netconvertConfiguration.xsd">

    <input>
        <sumo-net-file value="C:\Users\UnPerson\Documents\Knowledge%20Engineering\Project%202.2\Project%202.2\core\assets\MapXmls\Turbine%202\Turbine2.net.xml"/>
    </input>

    <output>
        <output-file value="C:\Users\UnPerson\Documents\Knowledge%20Engineering\Project%202.2\Project%202.2\core\assets\MapXmls\Turbine%202\Turbine2.net.xml"/>
    </output>

    <processing>
        <no-turnarounds value="true"/>
        <offset.disable-normalization value="true"/>
        <lefthand value="false"/>
        <junctions.corner-detail value="0"/>
        <rectangular-lane-cut value="false"/>
        <walkingareas value="false"/>
    </processing>

</configuration>
-->

<net version="0.27" xmlns:xsi="http://www.w3.org/2001/XMLSchema-instance" xsi:noNamespaceSchemaLocation="http://sumo.dlr.de/xsd/net_file.xsd">

    <location netOffset="-341019.26,-2796629.79" convBoundary="2053.94,2670.21,3579.35,4884.33" origBoundary="55.420441,25.278100,55.461850,25.327520" projParameter="+proj=utm +zone=40 +ellps=WGS84 +datum=WGS84 +units=m +no_defs"/>

    <type id="highway.bridleway" priority="1" numLanes="1" speed="2.78" allow="pedestrian" oneway="1" width="2.00"/>
    <type id="highway.bus_guideway" priority="1" numLanes="1" speed="8.33" allow="bus" oneway="1"/>
    <type id="highway.cycleway" priority="1" numLanes="1" speed="5.56" allow="bicycle" oneway="0" width="1.00"/>
    <type id="highway.footway" priority="1" numLanes="1" speed="2.78" allow="pedestrian" oneway="1" width="2.00"/>
    <type id="highway.ford" priority="1" numLanes="1" speed="2.78" allow="army" oneway="0"/>
    <type id="highway.living_street" priority="3" numLanes="1" speed="2.78" disallow="tram rail_urban rail rail_electric ship" oneway="0"/>
    <type id="highway.motorway" priority="13" numLanes="2" speed="44.44" allow="private emergency authority army vip passenger hov taxi bus coach delivery truck trailer motorcycle evehicle custom1 custom2" oneway="1"/>
    <type id="highway.motorway_link" priority="12" numLanes="1" speed="22.22" allow="private emergency authority army vip passenger hov taxi bus coach delivery truck trailer motorcycle evehicle custom1 custom2" oneway="1"/>
    <type id="highway.path" priority="1" numLanes="1" speed="2.78" allow="bicycle pedestrian" oneway="1" width="2.00"/>
    <type id="highway.pedestrian" priority="1" numLanes="1" speed="2.78" allow="pedestrian" oneway="1" width="2.00"/>
    <type id="highway.primary" priority="9" numLanes="2" speed="27.78" disallow="tram rail_urban rail rail_electric ship" oneway="0"/>
    <type id="highway.primary_link" priority="8" numLanes="1" speed="22.22" disallow="tram rail_urban rail rail_electric ship" oneway="0"/>
    <type id="highway.raceway" priority="14" numLanes="2" speed="83.33" allow="vip" oneway="0"/>
    <type id="highway.residential" priority="4" numLanes="1" speed="13.89" disallow="tram rail_urban rail rail_electric ship" oneway="0"/>
    <type id="highway.secondary" priority="7" numLanes="2" speed="27.78" disallow="tram rail_urban rail rail_electric ship" oneway="0"/>
    <type id="highway.secondary_link" priority="6" numLanes="1" speed="22.22" disallow="tram rail_urban rail rail_electric ship" oneway="0"/>
    <type id="highway.service" priority="2" numLanes="1" speed="5.56" allow="delivery bicycle pedestrian" oneway="0"/>
    <type id="highway.services" priority="1" numLanes="1" speed="8.33" disallow="tram rail_urban rail rail_electric ship" oneway="0"/>
    <type id="highway.stairs" priority="1" numLanes="1" speed="1.39" allow="pedestrian" oneway="1" width="2.00"/>
    <type id="highway.step" priority="1" numLanes="1" speed="1.39" allow="pedestrian" oneway="1" width="2.00"/>
    <type id="highway.steps" priority="1" numLanes="1" speed="1.39" allow="pedestrian" oneway="1" width="2.00"/>
    <type id="highway.tertiary" priority="6" numLanes="1" speed="22.22" disallow="tram rail_urban rail rail_electric ship" oneway="0"/>
    <type id="highway.tertiary_link" priority="5" numLanes="1" speed="22.22" disallow="tram rail_urban rail rail_electric ship" oneway="0"/>
    <type id="highway.track" priority="1" numLanes="1" speed="5.56" disallow="tram rail_urban rail rail_electric ship" oneway="0"/>
    <type id="highway.trunk" priority="11" numLanes="2" speed="27.78" disallow="tram rail_urban rail rail_electric bicycle pedestrian ship" oneway="0"/>
    <type id="highway.trunk_link" priority="10" numLanes="1" speed="22.22" disallow="tram rail_urban rail rail_electric bicycle pedestrian ship" oneway="0"/>
    <type id="highway.unclassified" priority="5" numLanes="1" speed="13.89" disallow="tram rail_urban rail rail_electric ship" oneway="0"/>
    <type id="highway.unsurfaced" priority="1" numLanes="1" speed="8.33" disallow="tram rail_urban rail rail_electric ship" oneway="0"/>
    <type id="railway.light_rail" priority="15" numLanes="1" speed="27.78" allow="rail_urban" oneway="1"/>
    <type id="railway.preserved" priority="15" numLanes="1" speed="27.78" allow="rail" oneway="1"/>
    <type id="railway.rail" priority="15" numLanes="1" speed="83.33" allow="rail rail_electric" oneway="1"/>
    <type id="railway.subway" priority="15" numLanes="1" speed="27.78" allow="rail_urban" oneway="1"/>
    <type id="railway.tram" priority="15" numLanes="1" speed="13.89" allow="tram" oneway="1"/>

    <edge id=":1193454337_0" function="internal">
        <lane id=":1193454337_0_0" index="0" allow="private emergency authority army vip passenger hov taxi bus coach delivery truck trailer motorcycle evehicle custom1 custom2" speed="33.33" length="23.71" shape="2584.77,3415.95 2602.80,3400.55"/>
    </edge>
    <edge id=":1193454337_1" function="internal">
        <lane id=":1193454337_1_0" index="0" allow="private emergency authority army vip passenger hov taxi bus coach delivery truck trailer motorcycle evehicle custom1 custom2" speed="44.44" length="23.71" shape="2584.77,3415.95 2604.83,3403.31"/>
    </edge>
    <edge id=":1193454525_0" function="internal">
        <lane id=":1193454525_0_0" index="0" allow="private emergency authority army vip passenger hov taxi bus coach delivery truck trailer motorcycle evehicle custom1 custom2" speed="22.22" length="3.00" shape="2625.74,3380.73 2626.35,3377.87"/>
        <lane id=":1193454525_0_1" index="1" allow="private emergency authority army vip passenger hov taxi bus coach delivery truck trailer motorcycle evehicle custom1 custom2" speed="22.22" length="3.00" shape="2625.74,3380.73 2628.75,3380.14"/>
    </edge>
    <edge id=":1826913331_0" function="internal">
        <lane id=":1826913331_0_0" index="0" allow="private emergency authority army vip passenger hov taxi bus coach delivery truck trailer motorcycle evehicle custom1 custom2" speed="22.22" length="0.23" shape="2501.30,3504.09 2501.25,3504.13 2501.21,3504.16 2501.18,3504.19 2501.13,3504.25"/>
    </edge>
    <edge id=":1826913496_0" function="internal">
        <lane id=":1826913496_0_0" index="0" allow="private emergency authority army vip passenger hov taxi bus coach delivery truck trailer motorcycle evehicle custom1 custom2" speed="33.33" length="26.85" shape="2566.94,3449.93 2562.48,3453.31 2556.43,3458.27 2550.44,3463.32 2546.16,3466.93"/>
    </edge>
    <edge id=":1826913496_1" function="internal">
        <lane id=":1826913496_1_0" index="0" allow="private emergency authority army vip passenger hov taxi bus coach delivery truck trailer motorcycle evehicle custom1 custom2" speed="44.44" length="26.85" shape="2566.94,3449.93 2544.17,3464.18"/>
    </edge>
    <edge id=":1927299530_0" function="internal">
        <lane id=":1927299530_0_0" index="0" disallow="tram rail_urban rail rail_electric ship" speed="22.22" length="0.29" shape="2836.47,3779.44 2836.65,3779.70"/>
        <lane id=":1927299530_0_1" index="1" disallow="tram rail_urban rail rail_electric ship" speed="22.22" length="0.29" shape="2833.76,3781.33 2833.91,3781.54"/>
    </edge>
    <edge id=":3128249012_0" function="internal">
        <lane id=":3128249012_0_0" index="0" disallow="tram rail_urban rail rail_electric ship" speed="22.22" length="43.14" shape="2744.65,3640.52 2747.72,3647.26 2753.60,3658.01 2760.30,3669.40 2765.83,3678.05"/>
    </edge>
    <edge id=":3128249012_1" function="internal">
        <lane id=":3128249012_1_0" index="0" disallow="tram rail_urban rail rail_electric ship" speed="22.22" length="43.14" shape="2741.45,3642.47 2765.83,3678.05"/>
        <lane id=":3128249012_1_1" index="1" disallow="tram rail_urban rail rail_electric ship" speed="22.22" length="43.14" shape="2738.74,3644.34 2763.13,3679.94"/>
    </edge>
    <edge id=":3128249023_0" function="internal">
        <lane id=":3128249023_0_0" index="0" allow="private emergency authority army vip passenger hov taxi bus coach delivery truck trailer motorcycle evehicle custom1 custom2" speed="22.22" length="4.91" shape="2373.71,3619.03 2370.10,3622.36"/>
    </edge>
    <edge id=":3128249024_0" function="internal">
        <lane id=":3128249024_0_0" index="0" allow="private emergency authority army vip passenger hov taxi bus coach delivery truck trailer motorcycle evehicle custom1 custom2" speed="22.22" length="14.88" shape="2437.33,3198.98 2440.33,3202.57 2443.11,3204.80 2445.86,3206.44 2448.78,3208.26"/>
    </edge>
    <edge id=":3128249024_1" function="internal">
        <lane id=":3128249024_1_0" index="0" disallow="tram rail_urban rail rail_electric ship" speed="22.22" length="14.40" shape="2437.33,3198.98 2445.83,3210.59"/>
        <lane id=":3128249024_1_1" index="1" disallow="tram rail_urban rail rail_electric ship" speed="22.22" length="14.40" shape="2434.63,3200.88 2443.14,3212.50"/>
    </edge>
    <edge id=":3128249244_0" function="internal">
        <lane id=":3128249244_0_0" index="0" allow="private emergency authority army vip passenger hov taxi bus coach delivery truck trailer motorcycle evehicle custom1 custom2" speed="22.22" length="3.16" shape="2553.54,3249.07 2556.41,3247.89"/>
        <lane id=":3128249244_0_1" index="1" allow="private emergency authority army vip passenger hov taxi bus coach delivery truck trailer motorcycle evehicle custom1 custom2" speed="22.22" length="3.16" shape="2553.54,3249.07 2555.99,3251.16"/>
    </edge>
    <edge id=":3128249262_0" function="internal">
        <lane id=":3128249262_0_0" index="0" disallow="tram rail_urban rail rail_electric ship" speed="22.22" length="69.62" shape="2553.60,3341.74 2591.05,3400.42"/>
        <lane id=":3128249262_0_1" index="1" disallow="tram rail_urban rail rail_electric ship" speed="22.22" length="69.62" shape="2550.84,3343.58 2588.31,3402.27"/>
    </edge>
    <edge id=":3128249262_2" function="internal">
        <lane id=":3128249262_2_0" index="0" disallow="tram rail_urban rail rail_electric ship" speed="22.22" length="69.55" shape="2548.07,3345.57 2591.05,3400.42"/>
        <lane id=":3128249262_2_1" index="1" disallow="tram rail_urban rail rail_electric ship" speed="22.22" length="69.55" shape="2545.49,3347.62 2588.31,3402.27"/>
    </edge>
    <edge id=":3128376030_0" function="internal">
        <lane id=":3128376030_0_0" index="0" allow="private emergency authority army vip passenger hov taxi bus coach delivery truck trailer motorcycle evehicle custom1 custom2" speed="22.22" length="0.10" shape="2514.59,3627.57 2514.50,3627.56"/>
        <lane id=":3128376030_0_1" index="1" allow="private emergency authority army vip passenger hov taxi bus coach delivery truck trailer motorcycle evehicle custom1 custom2" speed="22.22" length="0.10" shape="2515.05,3624.31 2515.14,3624.32"/>
    </edge>
    <edge id=":3128376037_0" function="internal">
        <lane id=":3128376037_0_0" index="0" disallow="tram rail_urban rail rail_electric ship" speed="22.22" length="25.89" shape="2744.94,3740.03 2740.77,3734.67 2736.58,3730.43 2731.92,3726.66 2726.36,3722.69"/>
        <lane id=":3128376037_0_1" index="1" disallow="tram rail_urban rail rail_electric ship" speed="22.22" length="25.89" shape="2747.64,3738.13 2743.41,3732.70 2739.08,3728.28 2734.29,3724.33 2728.67,3720.28"/>
    </edge>
    <edge id=":3128376037_2" function="internal">
        <lane id=":3128376037_2_0" index="0" disallow="tram rail_urban rail rail_electric ship" speed="22.22" length="25.96" shape="2747.64,3738.13 2731.48,3717.82"/>
    </edge>
    <edge id=":3128376142_0" function="internal">
        <lane id=":3128376142_0_0" index="0" disallow="tram rail_urban rail rail_electric ship" speed="22.22" length="0.30" shape="2414.47,3166.41 2414.65,3166.66"/>
        <lane id=":3128376142_0_1" index="1" disallow="tram rail_urban rail rail_electric ship" speed="22.22" length="0.30" shape="2411.77,3168.31 2411.95,3168.55"/>
    </edge>
    <edge id=":3128376184_0" function="internal">
        <lane id=":3128376184_0_0" index="0" disallow="tram rail_urban rail rail_electric ship" speed="22.22" length="37.74" shape="2576.03,3522.68 2555.72,3490.87"/>
    </edge>
    <edge id=":3128376184_1" function="internal">
        <lane id=":3128376184_1_0" index="0" disallow="tram rail_urban rail rail_electric ship" speed="22.22" length="37.74" shape="2578.76,3520.76 2555.72,3490.87"/>
    </edge>
    <edge id=":3128376188_0" function="internal">
        <lane id=":3128376188_0_0" index="0" disallow="tram rail_urban rail rail_electric ship" speed="22.22" length="16.91" shape="2391.86,3233.11 2390.60,3229.24 2389.25,3225.03 2387.70,3220.91 2385.86,3217.33"/>
    </edge>
    <edge id=":3128376188_1" function="internal">
        <lane id=":3128376188_1_0" index="0" disallow="tram rail_urban rail rail_electric ship" speed="22.22" length="16.92" shape="2395.03,3231.55 2385.86,3217.33"/>
    </edge>
    <edge id=":3128376539_0" function="internal">
        <lane id=":3128376539_0_0" index="0" disallow="tram rail_urban rail rail_electric ship" speed="18.06" length="3.32" shape="2307.32,3669.58 2305.65,3672.45"/>
    </edge>
    <edge id=":3128376544_0" function="internal">
        <lane id=":3128376544_0_0" index="0" allow="private emergency authority army vip passenger hov taxi bus coach delivery truck trailer motorcycle evehicle custom1 custom2" speed="22.22" length="21.06" shape="2704.71,3681.01 2701.87,3678.32 2698.03,3675.81 2693.19,3673.06 2687.32,3669.62"/>
        <lane id=":3128376544_0_1" index="1" allow="private emergency authority army vip passenger hov taxi bus coach delivery truck trailer motorcycle evehicle custom1 custom2" speed="22.22" length="21.06" shape="2704.71,3681.01 2702.14,3677.88 2698.90,3674.41 2694.65,3670.69 2689.05,3666.81"/>
    </edge>
    <edge id=":3128376544_2" function="internal">
        <lane id=":3128376544_2_0" index="0" disallow="tram rail_urban rail rail_electric ship" speed="22.22" length="21.47" shape="2704.71,3681.01 2691.52,3664.07"/>
    </edge>
    <edge id=":3128376620_0" function="internal">
        <lane id=":3128376620_0_0" index="0" disallow="tram rail_urban rail rail_electric ship" speed="22.22" length="33.21" shape="2642.35,3602.80 2621.97,3576.57"/>
    </edge>
    <edge id=":3128376620_1" function="internal">
        <lane id=":3128376620_1_0" index="0" allow="private emergency authority army vip passenger hov taxi bus coach delivery truck trailer motorcycle evehicle custom1 custom2" speed="22.22" length="33.21" shape="2642.35,3602.80 2638.62,3597.38 2633.33,3588.89 2628.14,3580.31 2624.73,3574.66"/>
    </edge>
    <edge id=":3128376713_0" function="internal">
        <lane id=":3128376713_0_0" index="0" allow="private emergency authority army vip passenger hov taxi bus coach delivery truck trailer motorcycle evehicle custom1 custom2" speed="22.22" length="0.26" shape="2628.62,3240.08 2628.92,3240.11"/>
        <lane id=":3128376713_0_1" index="1" allow="private emergency authority army vip passenger hov taxi bus coach delivery truck trailer motorcycle evehicle custom1 custom2" speed="22.22" length="0.26" shape="2628.28,3243.36 2628.50,3243.38"/>
    </edge>
    <edge id=":3128376738_0" function="internal">
        <lane id=":3128376738_0_0" index="0" allow="private emergency authority army vip passenger hov taxi bus coach delivery truck trailer motorcycle evehicle custom1 custom2" speed="27.77" length="5.62" shape="2477.83,3324.58 2470.91,3325.95"/>
        <lane id=":3128376738_0_1" index="1" allow="private emergency authority army vip passenger hov taxi bus coach delivery truck trailer motorcycle evehicle custom1 custom2" speed="27.77" length="5.62" shape="2477.83,3324.58 2473.65,3324.11"/>
    </edge>
    <edge id=":3128376738_2" function="internal">
        <lane id=":3128376738_2_0" index="0" allow="private emergency authority army vip passenger hov taxi bus coach delivery truck trailer motorcycle evehicle custom1 custom2" speed="33.33" length="2.73" shape="2472.16,3327.81 2470.91,3325.95"/>
        <lane id=":3128376738_2_1" index="1" allow="private emergency authority army vip passenger hov taxi bus coach delivery truck trailer motorcycle evehicle custom1 custom2" speed="33.33" length="2.73" shape="2475.04,3326.17 2473.65,3324.11"/>
        <lane id=":3128376738_2_2" index="2" allow="private emergency authority army vip passenger hov taxi bus coach delivery truck trailer motorcycle evehicle custom1 custom2" speed="33.33" length="2.73" shape="2477.91,3324.53 2476.39,3322.27"/>
        <lane id=":3128376738_2_3" index="3" allow="private emergency authority army vip passenger hov taxi bus coach delivery truck trailer motorcycle evehicle custom1 custom2" speed="33.33" length="2.73" shape="2480.79,3322.90 2479.13,3320.43"/>
        <lane id=":3128376738_2_4" index="4" allow="private emergency authority army vip passenger hov taxi bus coach delivery truck trailer motorcycle evehicle custom1 custom2" speed="33.33" length="2.73" shape="2483.66,3321.26 2481.87,3318.59"/>
    </edge>
    <edge id=":3128786020_0" function="internal">
        <lane id=":3128786020_0_0" index="0" allow="private emergency authority army vip passenger hov taxi bus coach delivery truck trailer motorcycle evehicle custom1 custom2" speed="22.22" length="0.10" shape="2984.04,3171.24 2984.04,3171.24"/>
    </edge>
    <edge id=":3136844103_0" function="internal">
        <lane id=":3136844103_0_0" index="0" disallow="tram rail_urban rail rail_electric ship" speed="22.22" length="0.30" shape="2378.76,3115.58 2378.94,3115.82"/>
        <lane id=":3136844103_0_1" index="1" disallow="tram rail_urban rail rail_electric ship" speed="22.22" length="0.30" shape="2376.06,3117.47 2376.24,3117.72"/>
    </edge>
    <edge id=":4886080582_0" function="internal">
        <lane id=":4886080582_0_0" index="0" disallow="tram rail_urban rail rail_electric ship" speed="13.89" length="13.23" shape="2293.84,3086.29 2292.92,3082.92 2292.14,3079.84 2291.10,3076.90 2289.39,3073.92"/>
    </edge>
    <edge id=":4886080582_1" function="internal">
        <lane id=":4886080582_1_0" index="0" disallow="tram rail_urban rail rail_electric ship" speed="22.22" length="13.22" shape="2297.09,3084.67 2289.39,3073.92"/>
    </edge>
    <edge id=":4886239504_0" function="internal">
        <lane id=":4886239504_0_0" index="0" disallow="tram rail_urban rail rail_electric ship" speed="22.22" length="12.51" shape="2616.96,3675.92 2604.67,3673.62"/>
        <lane id=":4886239504_0_1" index="1" disallow="tram rail_urban rail rail_electric ship" speed="22.22" length="12.51" shape="2617.41,3672.64 2605.11,3670.35"/>
    </edge>
    <edge id=":4886239504_2" function="internal">
        <lane id=":4886239504_2_0" index="0" disallow="tram rail_urban rail rail_electric ship" speed="22.22" length="12.43" shape="2617.39,3669.05 2614.23,3669.54 2611.68,3670.17 2608.91,3670.56 2605.11,3670.35"/>
    </edge>
    <edge id=":4886239507_0" function="internal">
        <lane id=":4886239507_0_0" index="0" allow="private emergency authority army vip passenger hov taxi bus coach delivery truck trailer motorcycle evehicle custom1 custom2" speed="22.22" length="8.91" shape="2264.81,3683.10 2262.14,3683.22 2260.24,3683.25 2258.50,3683.69 2256.37,3685.09"/>
    </edge>
    <edge id=":4886239507_1" function="internal">
        <lane id=":4886239507_1_0" index="0" allow="private emergency authority army vip passenger hov taxi bus coach delivery truck trailer motorcycle evehicle custom1 custom2" speed="22.22" length="8.92" shape="2263.30,3679.48 2256.37,3685.09"/>
    </edge>
    <edge id=":4886239515_0" function="internal">
        <lane id=":4886239515_0_0" index="0" allow="private emergency authority army vip passenger hov taxi bus coach delivery truck trailer motorcycle evehicle custom1 custom2" speed="22.22" length="13.68" shape="2655.08,3668.39 2651.71,3667.50 2648.45,3667.39 2645.11,3667.64 2641.54,3667.85"/>
    </edge>
    <edge id=":4886239515_1" function="internal">
        <lane id=":4886239515_1_0" index="0" allow="private emergency authority army vip passenger hov taxi bus coach delivery truck trailer motorcycle evehicle custom1 custom2" speed="22.22" length="13.68" shape="2655.08,3668.39 2651.76,3667.15 2648.62,3666.16 2645.45,3665.26 2642.04,3664.27"/>
    </edge>
    <edge id=":4886239518_0" function="internal">
        <lane id=":4886239518_0_0" index="0" allow="private emergency authority army vip passenger hov taxi bus coach delivery truck trailer motorcycle evehicle custom1 custom2" speed="22.22" length="11.11" shape="2722.54,3704.96 2720.54,3702.60 2718.60,3701.22 2716.40,3700.11 2713.62,3698.57"/>
    </edge>
    <edge id=":4886239518_1" function="internal">
        <lane id=":4886239518_1_0" index="0" disallow="tram rail_urban rail rail_electric ship" speed="22.22" length="11.09" shape="2722.54,3704.96 2716.19,3695.86"/>
    </edge>
    <edge id=":4886239520_0" function="internal">
        <lane id=":4886239520_0_0" index="0" disallow="tram rail_urban rail rail_electric ship" speed="22.22" length="0.24" shape="2643.43,3684.90 2643.32,3684.85"/>
        <lane id=":4886239520_0_1" index="1" disallow="tram rail_urban rail rail_electric ship" speed="22.22" length="0.24" shape="2644.89,3681.94 2644.56,3681.80"/>
    </edge>
    <edge id=":4886240623_0" function="internal">
        <lane id=":4886240623_0_0" index="0" disallow="tram rail_urban rail rail_electric ship" speed="22.22" length="0.30" shape="2667.56,3696.21 2667.28,3696.10"/>
        <lane id=":4886240623_0_1" index="1" disallow="tram rail_urban rail rail_electric ship" speed="22.22" length="0.30" shape="2668.78,3693.14 2668.50,3693.03"/>
    </edge>
    <edge id=":4886240629_0" function="internal">
        <lane id=":4886240629_0_0" index="0" disallow="tram rail_urban rail rail_electric ship" speed="22.22" length="0.51" shape="2323.68,3663.57 2323.61,3663.60 2323.56,3663.62 2323.52,3663.65 2323.45,3663.68"/>
        <lane id=":4886240629_0_1" index="1" disallow="tram rail_urban rail rail_electric ship" speed="22.22" length="0.51" shape="2322.44,3660.51 2322.22,3660.60 2322.08,3660.67 2321.94,3660.74 2321.75,3660.86"/>
    </edge>
    <edge id=":4926955352_0" function="internal">
        <lane id=":4926955352_0_0" index="0" allow="delivery bicycle pedestrian" speed="5.56" length="0.10" shape="2332.16,3145.56 2332.16,3145.56"/>
    </edge>
    <edge id=":865169495_0" function="internal">
        <lane id=":865169495_0_0" index="0" allow="private emergency authority army vip passenger hov taxi bus coach delivery truck trailer motorcycle evehicle custom1 custom2" speed="44.44" length="0.30" shape="2645.34,3397.22 2645.10,3397.38"/>
    </edge>
    <edge id=":865169497_0" function="internal">
        <lane id=":865169497_0_0" index="0" allow="private emergency authority army vip passenger hov taxi bus coach delivery truck trailer motorcycle evehicle custom1 custom2" speed="44.44" length="0.24" shape="2478.90,3504.86 2478.70,3504.99"/>
    </edge>
    <edge id=":865169498_0" function="internal">
        <lane id=":865169498_0_0" index="0" allow="private emergency authority army vip passenger hov taxi bus coach delivery truck trailer motorcycle evehicle custom1 custom2" speed="44.44" length="0.10" shape="2633.91,3385.16 2633.91,3385.16"/>
    </edge>
    <edge id=":865169500_0" function="internal">
        <lane id=":865169500_0_0" index="0" allow="private emergency authority army vip passenger hov taxi bus coach delivery truck trailer motorcycle evehicle custom1 custom2" speed="44.44" length="0.30" shape="2465.50,3494.95 2465.76,3494.79"/>
    </edge>

    <edge id="103341400" from="1193454337" to="1193454525" priority="12" type="highway.motorway_link" spreadType="center">
        <lane id="103341400_0" index="0" allow="private emergency authority army vip passenger hov taxi bus coach delivery truck trailer motorcycle evehicle custom1 custom2" speed="22.22" length="30.32" shape="2602.80,3400.55 2625.74,3380.73"/>
    </edge>
    <edge id="171699577" from="1826913496" to="1826913331" priority="12" type="highway.motorway_link" spreadType="center">
        <lane id="171699577_0" index="0" allow="private emergency authority army vip passenger hov taxi bus coach delivery truck trailer motorcycle evehicle custom1 custom2" speed="22.22" length="58.25" shape="2546.16,3466.93 2501.30,3504.09"/>
    </edge>
    <edge id="171699626#1" from="3128376573" to="865169500" priority="13" type="highway.motorway" spreadType="center" shape="2117.89,3806.77 2155.43,3756.64 2181.59,3725.13 2210.30,3694.22 2235.72,3667.81 2259.55,3646.09 2287.90,3622.16 2318.62,3596.55 2363.96,3559.94 2465.63,3494.87">
        <lane id="171699626#1_0" index="0" allow="private emergency authority army vip passenger hov taxi bus coach delivery truck trailer motorcycle evehicle custom1 custom2" speed="44.44" length="470.60" shape="2117.89,3806.77 2155.43,3756.64 2181.59,3725.13 2210.30,3694.22 2235.72,3667.81 2259.55,3646.09 2287.90,3622.16 2318.62,3596.55 2363.96,3559.94 2465.50,3494.95"/>
    </edge>
    <edge id="245390383#1" from="3128376053" to="865169495" priority="13" type="highway.motorway" spreadType="center" shape="3164.28,3039.84 3068.46,3105.83 2645.22,3397.30">
        <lane id="245390383#1_0" index="0" allow="private emergency authority army vip passenger hov taxi bus coach delivery truck trailer motorcycle evehicle custom1 custom2" speed="44.44" length="575.93" shape="3119.68,3070.56 3068.46,3105.83 2645.34,3397.22"/>
    </edge>
    <edge id="307627327" from="3128249244" to="3128249023" priority="12" type="highway.motorway_link" spreadType="center" shape="2554.86,3249.35 2623.29,3258.22 2653.49,3265.26 2682.13,3278.22 2705.18,3295.50 2723.94,3313.01 2742.51,3337.69 2753.28,3358.78 2761.72,3385.91 2765.82,3412.73 2765.05,3439.06 2761.77,3462.37 2752.67,3492.30 2741.93,3521.15 2728.97,3545.48 2709.84,3572.29 2694.12,3589.93 2674.34,3607.89 2651.54,3621.59 2624.94,3633.17 2611.77,3638.51 2595.91,3643.00 2583.33,3645.55 2568.94,3646.81 2536.77,3646.02 2501.05,3640.25 2411.47,3624.10 2379.84,3621.24">
        <lane id="307627327_0" index="0" allow="private emergency authority army vip passenger hov taxi bus coach delivery truck trailer motorcycle evehicle custom1 custom2" speed="22.22" length="828.51" shape="2556.41,3247.89 2623.58,3256.59 2654.02,3263.69 2682.98,3276.79 2706.24,3294.23 2725.17,3311.90 2743.91,3336.81 2754.81,3358.16 2763.33,3385.54 2767.47,3412.63 2766.70,3439.20 2763.39,3462.73 2754.23,3492.83 2743.44,3521.83 2730.38,3546.35 2711.13,3573.32 2695.29,3591.09 2675.33,3609.22 2652.30,3623.06 2625.58,3634.69 2612.31,3640.07 2596.30,3644.60 2583.57,3647.19 2568.99,3648.46 2536.62,3647.67 2500.77,3641.88 2411.25,3625.74 2373.41,3622.32"/>
        <lane id="307627327_1" index="1" allow="private emergency authority army vip passenger hov taxi bus coach delivery truck trailer motorcycle evehicle custom1 custom2" speed="22.22" length="828.51" shape="2555.99,3251.16 2623.00,3259.85 2652.96,3266.83 2681.28,3279.65 2704.12,3296.77 2722.71,3314.12 2741.11,3338.57 2751.75,3359.40 2760.11,3386.28 2764.17,3412.83 2763.40,3438.92 2760.15,3462.01 2751.11,3491.77 2740.42,3520.47 2727.56,3544.61 2708.55,3571.26 2692.95,3588.77 2673.35,3606.56 2650.78,3620.12 2624.30,3631.65 2611.23,3636.95 2595.52,3641.40 2583.09,3643.91 2568.89,3645.16 2536.92,3644.37 2501.33,3638.62 2411.69,3622.46 2373.71,3619.03"/>
    </edge>
    <edge id="307627330" from="3128249024" to="3128249244" priority="12" type="highway.motorway_link" spreadType="center" shape="2421.98,3179.98 2439.25,3201.54 2474.10,3226.11 2504.26,3238.74 2554.86,3249.35">
        <lane id="307627330_0" index="0" allow="private emergency authority army vip passenger hov taxi bus coach delivery truck trailer motorcycle evehicle custom1 custom2" speed="22.22" length="114.03" shape="2448.78,3208.26 2474.10,3226.11 2504.26,3238.74 2553.54,3249.07"/>
    </edge>
    <edge id="307631788" from="1193454525" to="3128249262" priority="12" type="highway.motorway_link" spreadType="center" shape="2626.69,3379.91 2637.94,3368.04 2647.90,3354.37 2653.68,3340.61 2657.00,3324.19 2654.98,3310.33 2649.43,3296.97 2639.58,3286.34 2628.92,3278.31 2617.01,3273.16 2605.07,3271.06 2592.15,3272.11 2579.20,3276.19 2566.08,3285.22 2556.20,3295.27 2549.88,3309.03 2549.01,3327.85 2551.63,3341.61 2560.74,3357.89 2588.77,3400.00">