<?xml version="1.0" encoding="UTF-8"?>

<!-- generated on 16/05/2018 14:18:53 by Netedit Version 0.32.0
<?xml version="1.0" encoding="UTF-8"?>

<configuration xmlns:xsi="http://www.w3.org/2001/XMLSchema-instance" xsi:noNamespaceSchemaLocation="http://sumo.dlr.de/xsd/netconvertConfiguration.xsd">

    <input>
        <sumo-net-file value="C:\Users\Abel\Documents\School\Year%202\Project%202-2\MapXmls\Turbine%202\Turbine2.net.xml"/>
    </input>

    <output>
        <output-file value="C:\Users\Abel\Documents\School\Year%202\Project%202-2\MapXmls\Turbine%202\Turbine2.net.xml"/>
        <plain-output-prefix value="C:\Users\Abel\Documents\School\Year%202\Project%202-2\MapXmls\Turbine%202\Turbine2"/>
    </output>

    <processing>
        <no-turnarounds value="true"/>
        <offset.disable-normalization value="true"/>
        <lefthand value="false"/>
        <junctions.corner-detail value="0"/>
        <rectangular-lane-cut value="false"/>
        <walkingareas value="false"/>
    </processing>

</configuration>
-->

<nodes version="0.27" xmlns:xsi="http://www.w3.org/2001/XMLSchema-instance" xsi:noNamespaceSchemaLocation="http://sumo.dlr.de/xsd/nodes_file.xsd">
    <location netOffset="-341019.26,-2796629.79" convBoundary="0.00,0.00,4105.76,5522.07" origBoundary="55.420441,25.278100,55.461850,25.327520" projParameter="+proj=utm +zone=40 +ellps=WGS84 +datum=WGS84 +units=m +no_defs"/>

    <node id="1193454337" x="2586.04" y="3415.03" type="priority"/>
    <node id="1193454525" x="2626.69" y="3379.91" type="priority"/>
    <node id="1826912437" x="8.26" y="5522.07" type="dead_end"/>
    <node id="1826913276" x="0.00" y="5509.85" type="dead_end"/>
    <node id="1826913331" x="2501.21" y="3504.16" type="priority"/>
    <node id="1826913496" x="2565.62" y="3450.81" type="priority"/>
    <node id="1826913711" x="2138.39" y="3810.00" type="priority"/>
    <node id="1927298908" x="2852.09" y="3713.63" type="priority"/>
    <node id="1927299095" x="3277.68" y="3821.23" type="priority"/>
    <node id="1927299100" x="3132.88" y="3464.31" type="priority"/>
    <node id="1927299218" x="3086.13" y="3951.13" type="priority"/>
    <node id="1927299250" x="2906.81" y="3676.49" type="priority"/>
    <node id="1927299379" x="2954.23" y="3747.51" type="priority"/>
    <node id="1927299530" x="2835.20" y="3780.50" type="priority"/>
    <node id="1927299647" x="3147.43" y="3523.73" type="dead_end"/>
    <node id="1927300185" x="3131.93" y="3498.15" type="dead_end"/>
    <node id="1927300303" x="3186.71" y="3884.22" type="priority"/>
    <node id="1927300373" x="3096.71" y="4155.15" type="dead_end"/>
    <node id="1927300460" x="2895.56" y="3782.91" type="priority"/>
    <node id="2139916166" x="2304.97" y="2565.05" type="priority"/>
    <node id="3100527167" x="2924.67" y="3130.27" type="priority"/>
    <node id="3100527169" x="2824.20" y="2979.18" type="priority"/>
    <node id="3100527176" x="3180.16" y="2855.02" type="priority"/>
    <node id="3100527192" x="3458.56" y="2539.29" type="priority"/>
    <node id="3100527193" x="1868.01" y="2167.16" type="priority"/>
    <node id="3123715399" x="2879.05" y="3060.22" type="priority"/>
    <node id="3128249012" x="2775.57" y="3694.91" type="priority"/>
    <node id="3128249023" x="2379.84" y="3621.24" type="priority"/>
    <node id="3128249024" x="2421.98" y="3179.98" type="priority"/>
    <node id="3128249244" x="2554.86" y="3249.35" type="priority"/>
    <node id="3128249246" x="3325.42" y="4506.68" type="dead_end"/>
    <node id="3128249247" x="2053.94" y="2670.21" type="dead_end"/>
    <node id="3128249262" x="2588.77" y="3400.00" type="priority"/>
    <node id="3128376030" x="2514.82" y="3625.94" type="priority"/>
    <node id="3128376037" x="2745.25" y="3737.60" type="priority"/>
    <node id="3128376053" x="3164.28" y="3039.84" type="priority"/>
    <node id="3128376142" x="2413.21" y="3167.48" type="priority"/>
    <node id="3128376184" x="2556.60" y="3492.14" type="priority"/>
    <node id="3128376188" x="2386.77" y="3218.75" type="priority"/>
    <node id="3128376346" x="2643.16" y="3228.79" type="priority"/>
    <node id="3128376535" x="2200.84" y="3759.12" type="priority"/>
    <node id="3128376539" x="2306.93" y="3671.75" type="priority"/>
    <node id="3128376544" x="2700.53" y="3675.80" type="priority"/>
    <node id="3128376561" x="2018.27" y="3950.00" type="dead_end"/>
    <node id="3128376565" x="3153.58" y="3023.28" type="priority"/>
    <node id="3128376573" x="2117.89" y="3806.77" type="priority"/>
    <node id="3128376608" x="2056.95" y="2708.21" type="dead_end"/>
    <node id="3128376620" x="2641.32" y="3601.56" type="priority"/>
    <node id="3128376713" x="2628.58" y="3241.73" type="priority"/>
    <node id="3128376738" x="2477.15" y="3323.40" type="priority"/>
    <node id="3128777815" x="2500.48" y="3201.12" type="priority"/>
    <node id="3128777948" x="2582.40" y="3145.60" type="priority"/>
    <node id="3128777949" x="2560.84" y="3151.25" type="priority"/>
    <node id="3128777951" x="2541.56" y="3158.51" type="priority"/>
    <node id="3128779478" x="2571.38" y="3193.94" type="priority"/>
    <node id="3128779480" x="2664.37" y="3091.59" type="priority"/>
    <node id="3128779482" x="2643.01" y="3128.92" type="right_before_left"/>
    <node id="3128785939" x="2333.74" y="3436.13" type="priority"/>
    <node id="3128785952" x="2812.12" y="3379.59" type="priority"/>
    <node id="3128785955" x="2754.88" y="3576.92" type="priority"/>
    <node id="3128785969" x="2757.29" y="3603.43" type="priority"/>
    <node id="3128785975" x="2867.05" y="3703.92" type="priority"/>
    <node id="3128786002" x="2860.18" y="3694.11" type="priority"/>
    <node id="3128786004" x="2342.99" y="3435.49" type="priority"/>
    <node id="3128786006" x="2342.04" y="3460.88" type="priority"/>
    <node id="3128786019" x="2771.73" y="3580.55" type="priority"/>
    <node id="3128786020" x="2984.04" y="3171.24" type="priority"/>
    <node id="3128786021" x="3032.75" y="3316.46" type="priority"/>
    <node id="3128786025" x="2335.77" y="3460.73" type="priority"/>
    <node id="3128786027" x="2326.04" y="3448.44" type="priority"/>
    <node id="3136844101" x="2483.31" y="3053.23" type="priority"/>
    <node id="3136844103" x="2377.50" y="3116.65" type="priority"/>
    <node id="3136901815" x="2189.20" y="2847.89" type="dead_end"/>
    <node id="31380211" x="4105.76" y="0.00" type="dead_end"/>
    <node id="3216015650" x="2003.33" y="4108.26" type="dead_end"/>
    <node id="4885899635" x="3306.07" y="2982.53" type="priority"/>
    <node id="4885899658" x="3075.18" y="3250.98" type="priority"/>
    <node id="4885899678" x="3080.94" y="3223.40" type="priority"/>
    <node id="4885899683" x="3041.51" y="3249.56" type="priority"/>
    <node id="4885899685" x="3002.03" y="3262.16" type="priority"/>
    <node id="4885899686" x="3073.43" y="3234.19" type="priority"/>
    <node id="4885899692" x="3060.38" y="3226.68" type="priority"/>
    <node id="4885899696" x="3066.91" y="3243.79" type="priority"/>
    <node id="4885899699" x="3072.52" y="3239.05" type="priority"/>
    <node id="4885899701" x="3067.73" y="3226.53" type="priority"/>
    <node id="4885899702" x="3055.03" y="3234.58" type="priority"/>
    <node id="4885899707" x="3061.94" y="3243.90" type="priority"/>
    <node id="4885899708" x="3064.43" y="3244.19" type="priority"/>
    <node id="4885974382" x="2591.73" y="2985.15" type="priority"/>
    <node id="4885974385" x="2544.45" y="3141.27" type="right_before_left"/>
    <node id="4886080582" x="2290.41" y="3075.35" type="priority"/>
    <node id="4886080584" x="2365.59" y="3195.35" type="right_before_left"/>
    <node id="4886239504" x="2601.22" y="3671.49" type="priority"/>
    <node id="4886239507" x="2257.90" y="3683.85" type="priority"/>
    <node id="4886239515" x="2653.39" y="3667.70" type="priority"/>
    <node id="4886239518" x="2721.49" y="3703.46" type="priority"/>
    <node id="4886239520" x="2644.05" y="3683.37" type="priority"/>
    <node id="4886240623" x="2668.03" y="3694.62" type="priority"/>
    <node id="4886240629" x="2322.82" y="3662.14" type="priority"/>
    <node id="4886240671" x="2951.10" y="3952.66" type="priority"/>
    <node id="4886240676" x="3092.40" y="3551.64" type="priority"/>
    <node id="4886240677" x="3004.35" y="3612.37" type="priority"/>
    <node id="4923260694" x="3099.44" y="4271.89" type="dead_end"/>
    <node id="4926955344" x="2191.52" y="2932.88" type="dead_end"/>
    <node id="4926955351" x="2264.18" y="3190.75" type="priority"/>
    <node id="4926955352" x="2332.16" y="3145.56" type="right_before_left"/>
    <node id="4926955353" x="2328.22" y="3218.69" type="priority"/>
    <node id="837929399" x="3692.17" y="268.94" type="dead_end"/>
    <node id="837956453" x="2648.15" y="3104.19" type="priority"/>
    <node id="837957503" x="2699.92" y="3065.87" type="priority"/>
    <node id="838148719" x="3579.35" y="4884.33" type="dead_end"/>
    <node id="865169495" x="2645.22" y="3397.30" type="priority"/>
    <node id="865169497" x="2478.80" y="3504.92" type="priority"/>
    <node id="865169498" x="2633.91" y="3385.16" type="priority"/>
    <node id="865169500" x="2465.63" y="3494.87" type="priority"/>
    <node id="884968385" x="1805.04" y="3167.81" type="priority"/>
    <node id="884971008" x="1922.48" y="3088.91" type="priority"/>
    <node id="884972341" x="2181.53" y="3474.81" type="priority"/>
    <node id="884973171" x="2064.99" y="3551.50" type="priority"/>
    <node id="884973294" x="2059.76" y="3293.41" type="priority"/>
    <node id="884974172" x="1944.79" y="3374.10" type="priority"/>
    <node id="884974256" x="2001.35" y="3206.40" type="priority"/>
    <node id="884975549" x="2117.89" y="3128.23" type="priority"/>
    <node id="884975555" x="2240.30" y="3046.51" type="priority"/>
    <node id="884976384" x="2230.75" y="3294.84" type="priority"/>
    <node id="884976390" x="2316.93" y="3428.56" type="priority"/>
    <node id="884976942" x="2113.65" y="3373.68" type="priority"/>
    <node id="885107809" x="2173.50" y="3705.03" type="priority"/>
    <node id="885137071" x="2271.39" y="3606.55" type="priority"/>
    <node id="885252404" x="2644.00" y="3703.01" type="priority"/>
    <node id="885252455" x="2652.73" y="4515.77" type="priority"/>
    <node id="885252824" x="2584.49" y="4416.36" type="priority"/>
    <node id="885254069" x="2578.71" y="3747.35" type="priority"/>
    <node id="885260259" x="2314.94" y="3920.41" type="priority"/>
    <node id="885260643" x="2435.47" y="3838.49" type="priority"/>
    <node id="885260893" x="2355.64" y="3724.97" type="priority"/>
    <node id="885260896" x="2321.08" y="3679.29" type="priority"/>
    <node id="885261196" x="2448.47" y="3666.85" type="priority"/>
</nodes>
