<?xml version="1.0" encoding="UTF-8"?>

<!-- generated on 6/22/2018 11:21:51 AM by Netedit Version 0.32.0
<?xml version="1.0" encoding="UTF-8"?>

<configuration xmlns:xsi="http://www.w3.org/2001/XMLSchema-instance" xsi:noNamespaceSchemaLocation="http://sumo.dlr.de/xsd/netconvertConfiguration.xsd">

    <output>
        <output-file value="C:\Users\abeld\Downloads\normal%20interchange.net.xml"/>
    </output>

    <processing>
        <no-turnarounds value="true"/>
        <offset.disable-normalization value="true"/>
    </processing>

</configuration>
-->

<net version="0.27" xmlns:xsi="http://www.w3.org/2001/XMLSchema-instance" xsi:noNamespaceSchemaLocation="http://sumo.dlr.de/xsd/net_file.xsd">

    <location netOffset="0.00,0.00" convBoundary="360.00,-340.00,990.00,130.00" origBoundary="10000000000.00,10000000000.00,-10000000000.00,-10000000000.00" projParameter="!"/>

    <edge id=":gneJ10_0" function="internal">
        <lane id=":gneJ10_0_0" index="0" speed="13.89" length="0.10" shape="510.00,-131.65 510.00,-131.65"/>
    </edge>
    <edge id=":gneJ11_0" function="internal">
        <lane id=":gneJ11_0_0" index="0" speed="13.89" length="10.19" shape="637.73,-131.65 640.66,-131.91 642.57,-132.66 644.38,-133.83 647.01,-135.35"/>
    </edge>
    <edge id=":gneJ11_1" function="internal">
        <lane id=":gneJ11_1_0" index="0" speed="13.89" length="10.16" shape="637.73,-131.65 647.89,-131.65"/>
    </edge>
    <edge id=":gneJ17_0" function="internal">
        <lane id=":gneJ17_0_0" index="0" speed="13.89" length="0.10" shape="510.00,-141.65 510.00,-141.65"/>
    </edge>
    <edge id=":gneJ18_0" function="internal">
        <lane id=":gneJ18_0_0" index="0" speed="13.89" length="9.47" shape="638.51,-141.65 641.21,-141.94 642.95,-142.72 644.59,-143.90 647.01,-145.35"/>
    </edge>
    <edge id=":gneJ18_1" function="internal">
        <lane id=":gneJ18_1_0" index="0" speed="13.89" length="10.16" shape="638.51,-141.65 648.67,-141.65"/>
    </edge>
    <edge id=":gneJ18_2" function="internal">
        <lane id=":gneJ18_2_0" index="0" speed="13.89" length="10.19" shape="638.51,-141.65 641.44,-141.39 643.35,-140.64 645.16,-139.47 647.79,-137.95"/>
    </edge>
    <edge id=":gneJ22_0" function="internal">
        <lane id=":gneJ22_0_0" index="0" speed="13.89" length="0.10" shape="510.00,-151.65 510.00,-151.65"/>
    </edge>
    <edge id=":gneJ23_0" function="internal">
        <lane id=":gneJ23_0_0" index="0" speed="13.89" length="10.16" shape="638.51,-151.65 648.67,-151.65"/>
    </edge>
    <edge id=":gneJ23_1" function="internal">
        <lane id=":gneJ23_1_0" index="0" speed="13.89" length="10.19" shape="638.51,-151.65 641.44,-151.39 643.35,-150.64 645.16,-149.47 647.79,-147.95"/>
    </edge>
    <edge id=":gneJ24_0" function="internal">
        <lane id=":gneJ24_0_0" index="0" speed="13.89" length="10.19" shape="652.99,-135.35 655.62,-133.83 657.43,-132.66 659.34,-131.91 662.27,-131.65"/>
    </edge>
    <edge id=":gneJ24_1" function="internal">
        <lane id=":gneJ24_1_0" index="0" speed="13.89" length="10.16" shape="652.11,-131.65 662.27,-131.65"/>
    </edge>
    <edge id=":gneJ25_0" function="internal">
        <lane id=":gneJ25_0_0" index="0" speed="13.89" length="10.19" shape="652.99,-145.35 655.62,-143.83 657.43,-142.66 659.34,-141.91 662.27,-141.65"/>
    </edge>
    <edge id=":gneJ25_1" function="internal">
        <lane id=":gneJ25_1_0" index="0" speed="13.89" length="10.93" shape="651.33,-141.65 662.27,-141.65"/>
    </edge>
    <edge id=":gneJ25_2" function="internal">
        <lane id=":gneJ25_2_0" index="0" speed="13.89" length="10.90" shape="652.21,-137.95 654.96,-139.47 657.04,-140.64 659.21,-141.39 662.27,-141.65"/>
    </edge>
    <edge id=":gneJ26_0" function="internal">
        <lane id=":gneJ26_0_0" index="0" speed="13.89" length="10.16" shape="651.33,-151.65 661.49,-151.65"/>
    </edge>
    <edge id=":gneJ26_1" function="internal">
        <lane id=":gneJ26_1_0" index="0" speed="13.89" length="10.19" shape="652.21,-147.95 654.84,-149.47 656.65,-150.64 658.56,-151.39 661.49,-151.65"/>
    </edge>
    <edge id=":gneJ27_0" function="internal">
        <lane id=":gneJ27_0_0" index="0" speed="13.89" length="9.21" shape="668.52,-131.65 677.73,-131.65"/>
    </edge>
    <edge id=":gneJ27_1" function="internal">
        <lane id=":gneJ27_1_0" index="0" speed="13.89" length="34.84" shape="668.52,-131.65 674.76,-129.35 683.93,-124.11 692.97,-118.38 698.80,-114.64"/>
    </edge>
    <edge id=":gneJ27_2" function="internal">
        <lane id=":gneJ27_2_0" index="0" speed="13.89" length="34.78" shape="668.52,-131.65 674.51,-128.98 683.10,-122.88 691.51,-116.22 696.93,-111.86"/>
    </edge>
    <edge id=":gneJ27_3" function="internal">
        <lane id=":gneJ27_3_0" index="0" speed="13.89" length="26.24" shape="668.52,-131.65 670.55,-130.56 674.49,-127.30 680.32,-121.87 688.06,-114.27"/>
    </edge>
    <edge id=":gneJ28_0" function="internal">
        <lane id=":gneJ28_0_0" index="0" speed="13.89" length="18.99" shape="668.50,-141.65 672.84,-142.05 677.86,-143.01 682.87,-144.16 687.15,-145.11"/>
    </edge>
    <edge id=":gneJ28_1" function="internal">
        <lane id=":gneJ28_1_0" index="0" speed="13.89" length="19.32" shape="668.50,-141.65 687.82,-141.65"/>
    </edge>
    <edge id=":gneJ28_2" function="internal">
        <lane id=":gneJ28_2_0" index="0" speed="13.89" length="19.31" shape="668.50,-141.65 672.89,-141.25 678.03,-140.29 683.15,-139.14 687.48,-138.19"/>
    </edge>
    <edge id=":gneJ29_0" function="internal">
        <lane id=":gneJ29_0_0" index="0" speed="13.89" length="10.90" shape="669.53,-143.94 668.93,-147.00 668.57,-149.31 668.40,-151.64 668.35,-154.75"/>
    </edge>
    <edge id=":gneJ29_1" function="internal">
        <lane id=":gneJ29_1_0" index="0" speed="13.89" length="8.96" shape="669.53,-143.94 669.07,-147.31 669.24,-149.72 670.03,-151.17 671.45,-151.65"/>
    </edge>
    <edge id=":gneJ29_2" function="internal">
        <lane id=":gneJ29_2_0" index="0" speed="13.89" length="5.19" shape="672.91,-146.33 670.92,-147.88 669.49,-149.80 669.40,-150.05"/>
    </edge>
    <edge id=":gneJ29_3" function="internal">
        <lane id=":gneJ29_3_0" index="0" speed="13.89" length="5.95" shape="672.91,-146.33 669.50,-148.66 668.34,-150.05"/>
    </edge>
    <edge id=":gneJ29_6" function="internal">
        <lane id=":gneJ29_6_0" index="0" speed="13.89" length="4.85" shape="669.40,-150.05 668.64,-152.09 668.35,-154.75"/>
    </edge>
    <edge id=":gneJ29_7" function="internal">
        <lane id=":gneJ29_7_0" index="0" speed="13.89" length="4.25" shape="668.34,-150.05 668.11,-150.32 668.76,-151.32 671.45,-151.65"/>
    </edge>
    <edge id=":gneJ29_4" function="internal">
        <lane id=":gneJ29_4_0" index="0" speed="13.89" length="5.06" shape="665.18,-151.65 666.56,-151.84 667.56,-152.43 668.15,-153.39 668.35,-154.75"/>
    </edge>
    <edge id=":gneJ29_5" function="internal">
        <lane id=":gneJ29_5_0" index="0" speed="13.89" length="6.27" shape="665.18,-151.65 671.45,-151.65"/>
    </edge>
    <edge id=":gneJ32_0" function="internal">
        <lane id=":gneJ32_0_0" index="0" speed="13.89" length="0.10" shape="668.35,-160.00 668.35,-160.00"/>
    </edge>
    <edge id=":gneJ33_0" function="internal">
        <lane id=":gneJ33_0_0" index="0" speed="13.89" length="10.28" shape="678.35,-144.47 678.35,-154.75"/>
    </edge>
    <edge id=":gneJ33_1" function="internal">
        <lane id=":gneJ33_1_0" index="0" speed="13.89" length="8.55" shape="678.35,-144.47 678.54,-147.61 679.13,-149.86 680.09,-151.20 681.45,-151.65"/>
    </edge>
    <edge id=":gneJ33_2" function="internal">
        <lane id=":gneJ33_2_0" index="0" speed="13.89" length="4.73" shape="682.11,-146.35 680.47,-147.94 679.29,-149.86 679.23,-150.05"/>
    </edge>
    <edge id=":gneJ33_3" function="internal">
        <lane id=":gneJ33_3_0" index="0" speed="13.89" length="5.16" shape="682.11,-146.35 679.42,-148.67 678.58,-150.05"/>
    </edge>
    <edge id=":gneJ33_6" function="internal">
        <lane id=":gneJ33_6_0" index="0" speed="13.89" length="4.81" shape="679.23,-150.05 678.59,-152.13 678.35,-154.75"/>
    </edge>
    <edge id=":gneJ33_7" function="internal">
        <lane id=":gneJ33_7_0" index="0" speed="13.89" length="3.91" shape="678.58,-150.05 678.41,-150.33 679.09,-151.32 681.45,-151.65"/>
    </edge>
    <edge id=":gneJ33_4" function="internal">
        <lane id=":gneJ33_4_0" index="0" speed="13.89" length="5.00" shape="675.25,-151.65 676.61,-151.84 677.58,-152.43 678.16,-153.39 678.35,-154.75"/>
    </edge>
    <edge id=":gneJ33_5" function="internal">
        <lane id=":gneJ33_5_0" index="0" speed="13.89" length="6.20" shape="675.25,-151.65 681.45,-151.65"/>
    </edge>
    <edge id=":gneJ34_0" function="internal">
        <lane id=":gneJ34_0_0" index="0" speed="13.89" length="0.10" shape="678.35,-160.00 678.35,-160.00"/>
    </edge>
    <edge id=":gneJ35_0" function="internal">
        <lane id=":gneJ35_0_0" index="0" speed="13.89" length="22.25" shape="688.35,-132.50 688.35,-154.75"/>
    </edge>
    <edge id=":gneJ35_1" function="internal">
        <lane id=":gneJ35_1_0" index="0" speed="13.89" length="6.84" shape="692.14,-145.52 690.48,-147.52 689.30,-149.73 688.81,-151.39"/>
    </edge>
    <edge id=":gneJ35_4" function="internal">
        <lane id=":gneJ35_4_0" index="0" speed="13.89" length="3.40" shape="688.81,-151.39 688.59,-152.14 688.35,-154.75"/>
    </edge>
    <edge id=":gneJ35_2" function="internal">
        <lane id=":gneJ35_2_0" index="0" speed="13.89" length="5.04" shape="685.20,-151.65 686.58,-151.84 687.56,-152.43 688.15,-153.39 688.35,-154.75"/>
    </edge>
    <edge id=":gneJ35_3" function="internal">
        <lane id=":gneJ35_3_0" index="0" speed="13.89" length="22.19" shape="684.89,-132.85 685.84,-137.64 686.99,-143.76 687.95,-149.91 688.35,-154.75"/>
    </edge>
    <edge id=":gneJ36_0" function="internal">
        <lane id=":gneJ36_0_0" index="0" speed="13.89" length="0.10" shape="688.35,-160.00 688.35,-160.00"/>
    </edge>
    <edge id=":gneJ40_0" function="internal">
        <lane id=":gneJ40_0_0" index="0" speed="13.89" length="10.19" shape="701.65,-182.27 701.91,-179.34 702.66,-177.43 703.83,-175.62 705.35,-172.99"/>
    </edge>
    <edge id=":gneJ40_1" function="internal">
        <lane id=":gneJ40_1_0" index="0" speed="13.89" length="10.16" shape="701.65,-182.27 701.65,-172.11"/>
    </edge>
    <edge id=":gneJ41_0" function="internal">
        <lane id=":gneJ41_0_0" index="0" speed="13.89" length="10.19" shape="705.35,-167.01 703.83,-164.38 702.66,-162.57 701.91,-160.66 701.65,-157.73"/>
    </edge>
    <edge id=":gneJ41_1" function="internal">
        <lane id=":gneJ41_1_0" index="0" speed="13.89" length="10.16" shape="701.65,-167.89 701.65,-157.73"/>
    </edge>
    <edge id=":gneJ43_0" function="internal">
        <lane id=":gneJ43_0_0" index="0" speed="13.89" length="10.19" shape="715.35,-167.01 713.83,-164.38 712.66,-162.57 711.91,-160.66 711.65,-157.73"/>
    </edge>
    <edge id=":gneJ43_1" function="internal">
        <lane id=":gneJ43_1_0" index="0" speed="13.89" length="10.93" shape="711.65,-168.67 711.65,-157.73"/>
    </edge>
    <edge id=":gneJ43_2" function="internal">
        <lane id=":gneJ43_2_0" index="0" speed="13.89" length="10.90" shape="707.95,-167.79 709.47,-165.04 710.64,-162.96 711.39,-160.79 711.65,-157.73"/>
    </edge>
    <edge id=":gneJ44_0" function="internal">
        <lane id=":gneJ44_0_0" index="0" speed="13.89" length="10.16" shape="721.65,-181.49 721.65,-171.33"/>
    </edge>
    <edge id=":gneJ44_1" function="internal">
        <lane id=":gneJ44_1_0" index="0" speed="13.89" length="10.19" shape="721.65,-181.49 721.39,-178.56 720.64,-176.65 719.47,-174.84 717.95,-172.21"/>
    </edge>
    <edge id=":gneJ45_0" function="internal">
        <lane id=":gneJ45_0_0" index="0" speed="13.89" length="10.16" shape="721.65,-168.67 721.65,-158.51"/>
    </edge>
    <edge id=":gneJ45_1" function="internal">
        <lane id=":gneJ45_1_0" index="0" speed="13.89" length="10.19" shape="717.95,-167.79 719.47,-165.16 720.64,-163.35 721.39,-161.44 721.65,-158.51"/>
    </edge>
    <edge id=":gneJ46_0" function="internal">
        <lane id=":gneJ46_0_0" index="0" speed="13.89" length="5.06" shape="721.65,-154.82 721.84,-153.44 722.42,-152.44 723.39,-151.85 724.75,-151.65"/>
    </edge>
    <edge id=":gneJ46_1" function="internal">
        <lane id=":gneJ46_1_0" index="0" speed="13.89" length="6.27" shape="721.65,-154.82 721.65,-148.55"/>
    </edge>
    <edge id=":gneJ46_2" function="internal">
        <lane id=":gneJ46_2_0" index="0" speed="13.89" length="10.90" shape="713.94,-150.47 717.00,-151.07 719.31,-151.43 721.64,-151.60 724.75,-151.65"/>
    </edge>
    <edge id=":gneJ46_3" function="internal">
        <lane id=":gneJ46_3_0" index="0" speed="13.89" length="8.96" shape="713.94,-150.47 717.31,-150.93 719.72,-150.76 721.17,-149.97 721.65,-148.55"/>
    </edge>
    <edge id=":gneJ46_4" function="internal">
        <lane id=":gneJ46_4_0" index="0" speed="13.89" length="5.19" shape="716.33,-147.09 717.88,-149.08 719.80,-150.51 720.05,-150.60"/>
    </edge>
    <edge id=":gneJ46_5" function="internal">
        <lane id=":gneJ46_5_0" index="0" speed="13.89" length="5.95" shape="716.33,-147.09 718.66,-150.50 720.05,-151.66"/>
    </edge>
    <edge id=":gneJ46_6" function="internal">
        <lane id=":gneJ46_6_0" index="0" speed="13.89" length="4.85" shape="720.05,-150.60 722.09,-151.36 724.75,-151.65"/>
    </edge>
    <edge id=":gneJ46_7" function="internal">
        <lane id=":gneJ46_7_0" index="0" speed="13.89" length="4.25" shape="720.05,-151.66 720.32,-151.89 721.32,-151.24 721.65,-148.55"/>
    </edge>
    <edge id=":gneJ47_0" function="internal">
        <lane id=":gneJ47_0_0" index="0" speed="13.89" length="18.99" shape="711.65,-151.50 712.05,-147.16 713.01,-142.14 714.16,-137.13 715.11,-132.85"/>
    </edge>
    <edge id=":gneJ47_1" function="internal">
        <lane id=":gneJ47_1_0" index="0" speed="13.89" length="19.32" shape="711.65,-151.50 711.65,-132.18"/>
    </edge>
    <edge id=":gneJ47_2" function="internal">
        <lane id=":gneJ47_2_0" index="0" speed="13.89" length="19.31" shape="711.65,-151.50 711.25,-147.11 710.29,-141.97 709.14,-136.85 708.19,-132.52"/>
    </edge>
    <edge id=":gneJ48_0" function="internal">
        <lane id=":gneJ48_0_0" index="0" speed="13.89" length="9.21" shape="701.65,-151.48 701.65,-142.27"/>
    </edge>
    <edge id=":gneJ48_1" function="internal">
        <lane id=":gneJ48_1_0" index="0" speed="13.89" length="34.84" shape="701.65,-151.48 699.35,-145.24 694.11,-136.07 688.38,-127.03 684.64,-121.20"/>
    </edge>
    <edge id=":gneJ48_2" function="internal">
        <lane id=":gneJ48_2_0" index="0" speed="13.89" length="34.78" shape="701.65,-151.48 698.98,-145.49 692.88,-136.90 686.22,-128.49 681.86,-123.07"/>
    </edge>
    <edge id=":gneJ48_3" function="internal">
        <lane id=":gneJ48_3_0" index="0" speed="13.89" length="26.43" shape="701.65,-151.48 699.43,-146.81 694.29,-141.16 688.48,-135.78 684.27,-131.94"/>
    </edge>
    <edge id=":gneJ51_0" function="internal">
        <lane id=":gneJ51_0_0" index="0" speed="13.89" length="5.04" shape="668.35,-115.20 668.16,-116.58 667.58,-117.56 666.61,-118.15 665.25,-118.35"/>
    </edge>
    <edge id=":gneJ51_1" function="internal">
        <lane id=":gneJ51_1_0" index="0" speed="13.89" length="22.19" shape="687.15,-114.89 682.36,-115.84 676.24,-116.99 670.09,-117.95 665.25,-118.35"/>
    </edge>
    <edge id=":gneJ51_2" function="internal">
        <lane id=":gneJ51_2_0" index="0" speed="13.89" length="22.25" shape="687.50,-118.35 665.25,-118.35"/>
    </edge>
    <edge id=":gneJ51_3" function="internal">
        <lane id=":gneJ51_3_0" index="0" speed="13.89" length="6.84" shape="674.48,-122.14 672.48,-120.48 670.27,-119.30 668.61,-118.81"/>
    </edge>
    <edge id=":gneJ51_4" function="internal">
        <lane id=":gneJ51_4_0" index="0" speed="13.89" length="3.40" shape="668.61,-118.81 667.86,-118.59 665.25,-118.35"/>
    </edge>
    <edge id=":gneJ52_0" function="internal">
        <lane id=":gneJ52_0_0" index="0" speed="13.89" length="0.10" shape="660.00,-118.35 660.00,-118.35"/>
    </edge>
    <edge id=":gneJ53_0" function="internal">
        <lane id=":gneJ53_0_0" index="0" speed="13.89" length="5.00" shape="668.35,-105.25 668.16,-106.61 667.58,-107.57 666.61,-108.16 665.25,-108.35"/>
    </edge>
    <edge id=":gneJ53_1" function="internal">
        <lane id=":gneJ53_1_0" index="0" speed="13.89" length="6.20" shape="668.35,-105.25 668.35,-111.45"/>
    </edge>
    <edge id=":gneJ53_2" function="internal">
        <lane id=":gneJ53_2_0" index="0" speed="13.89" length="10.27" shape="675.52,-108.35 665.25,-108.35"/>
    </edge>
    <edge id=":gneJ53_3" function="internal">
        <lane id=":gneJ53_3_0" index="0" speed="13.89" length="8.55" shape="675.52,-108.35 672.39,-108.54 670.14,-109.12 668.80,-110.09 668.35,-111.45"/>
    </edge>
    <edge id=":gneJ53_4" function="internal">
        <lane id=":gneJ53_4_0" index="0" speed="13.89" length="4.73" shape="673.64,-112.11 672.06,-110.46 670.14,-109.29 669.95,-109.23"/>
    </edge>
    <edge id=":gneJ53_5" function="internal">
        <lane id=":gneJ53_5_0" index="0" speed="13.89" length="5.16" shape="673.64,-112.11 671.33,-109.42 669.95,-108.58"/>
    </edge>
    <edge id=":gneJ53_6" function="internal">
        <lane id=":gneJ53_6_0" index="0" speed="13.89" length="4.81" shape="669.95,-109.23 667.87,-108.58 665.25,-108.35"/>
    </edge>
    <edge id=":gneJ53_7" function="internal">
        <lane id=":gneJ53_7_0" index="0" speed="13.89" length="3.91" shape="669.95,-108.58 669.67,-108.41 668.68,-109.09 668.35,-111.45"/>
    </edge>
    <edge id=":gneJ54_0" function="internal">
        <lane id=":gneJ54_0_0" index="0" speed="13.89" length="0.10" shape="660.00,-108.35 660.00,-108.35"/>
    </edge>
    <edge id=":gneJ55_0" function="internal">
        <lane id=":gneJ55_0_0" index="0" speed="13.89" length="5.06" shape="668.35,-95.18 668.16,-96.56 667.58,-97.56 666.61,-98.15 665.25,-98.35"/>
    </edge>
    <edge id=":gneJ55_1" function="internal">
        <lane id=":gneJ55_1_0" index="0" speed="13.89" length="6.27" shape="668.35,-95.18 668.35,-101.45"/>
    </edge>
    <edge id=":gneJ55_2" function="internal">
        <lane id=":gneJ55_2_0" index="0" speed="13.89" length="10.90" shape="676.06,-99.53 673.00,-98.93 670.69,-98.57 668.36,-98.40 665.25,-98.35"/>
    </edge>
    <edge id=":gneJ55_3" function="internal">
        <lane id=":gneJ55_3_0" index="0" speed="13.89" length="8.96" shape="676.06,-99.53 672.69,-99.07 670.28,-99.24 668.83,-100.03 668.35,-101.45"/>
    </edge>
    <edge id=":gneJ55_4" function="internal">
        <lane id=":gneJ55_4_0" index="0" speed="13.89" length="5.19" shape="673.67,-102.91 672.12,-100.92 670.20,-99.49 669.95,-99.40"/>
    </edge>
    <edge id=":gneJ55_5" function="internal">
        <lane id=":gneJ55_5_0" index="0" speed="13.89" length="5.95" shape="673.67,-102.91 671.34,-99.50 669.95,-98.34"/>
    </edge>
    <edge id=":gneJ55_6" function="internal">
        <lane id=":gneJ55_6_0" index="0" speed="13.89" length="4.85" shape="669.95,-99.40 667.91,-98.64 665.25,-98.35"/>
    </edge>
    <edge id=":gneJ55_7" function="internal">
        <lane id=":gneJ55_7_0" index="0" speed="13.89" length="4.25" shape="669.95,-98.34 669.68,-98.11 668.68,-98.76 668.35,-101.45"/>
    </edge>
    <edge id=":gneJ56_0" function="internal">
        <lane id=":gneJ56_0_0" index="0" speed="13.89" length="0.10" shape="660.00,-98.35 660.00,-98.35"/>
    </edge>
    <edge id=":gneJ57_0" function="internal">
        <lane id=":gneJ57_0_0" index="0" speed="13.89" length="5.00" shape="721.65,-144.75 721.84,-143.39 722.42,-142.43 723.39,-141.84 724.75,-141.65"/>
    </edge>
    <edge id=":gneJ57_1" function="internal">
        <lane id=":gneJ57_1_0" index="0" speed="13.89" length="6.20" shape="721.65,-144.75 721.65,-138.55"/>
    </edge>
    <edge id=":gneJ57_2" function="internal">
        <lane id=":gneJ57_2_0" index="0" speed="13.89" length="10.27" shape="714.48,-141.65 724.75,-141.65"/>
    </edge>
    <edge id=":gneJ57_3" function="internal">
        <lane id=":gneJ57_3_0" index="0" speed="13.89" length="8.55" shape="714.48,-141.65 717.61,-141.46 719.86,-140.88 721.20,-139.91 721.65,-138.55"/>
    </edge>
    <edge id=":gneJ57_4" function="internal">
        <lane id=":gneJ57_4_0" index="0" speed="13.89" length="4.73" shape="716.35,-137.89 717.94,-139.54 719.86,-140.71 720.05,-140.77"/>
    </edge>
    <edge id=":gneJ57_5" function="internal">
        <lane id=":gneJ57_5_0" index="0" speed="13.89" length="5.16" shape="716.35,-137.89 718.67,-140.58 720.05,-141.42"/>
    </edge>
    <edge id=":gneJ57_6" function="internal">
        <lane id=":gneJ57_6_0" index="0" speed="13.89" length="4.81" shape="720.05,-140.77 722.13,-141.41 724.75,-141.65"/>
    </edge>
    <edge id=":gneJ57_7" function="internal">
        <lane id=":gneJ57_7_0" index="0" speed="13.89" length="3.91" shape="720.05,-141.42 720.33,-141.59 721.32,-140.91 721.65,-138.55"/>
    </edge>
    <edge id=":gneJ58_0" function="internal">
        <lane id=":gneJ58_0_0" index="0" speed="13.89" length="0.10" shape="730.00,-141.65 730.00,-141.65"/>
    </edge>
    <edge id=":gneJ59_0" function="internal">
        <lane id=":gneJ59_0_0" index="0" speed="13.89" length="0.10" shape="730.00,-151.65 730.00,-151.65"/>
    </edge>
    <edge id=":gneJ60_0" function="internal">
        <lane id=":gneJ60_0_0" index="0" speed="13.89" length="5.04" shape="721.65,-134.80 721.84,-133.42 722.42,-132.44 723.39,-131.85 724.75,-131.65"/>
    </edge>
    <edge id=":gneJ60_1" function="internal">
        <lane id=":gneJ60_1_0" index="0" speed="13.89" length="22.19" shape="702.85,-135.11 707.64,-134.16 713.76,-133.01 719.91,-132.05 724.75,-131.65"/>
    </edge>
    <edge id=":gneJ60_2" function="internal">
        <lane id=":gneJ60_2_0" index="0" speed="13.89" length="22.25" shape="702.50,-131.65 724.75,-131.65"/>
    </edge>
    <edge id=":gneJ60_3" function="internal">
        <lane id=":gneJ60_3_0" index="0" speed="13.89" length="6.84" shape="715.52,-127.86 717.52,-129.52 719.73,-130.70 721.39,-131.19"/>
    </edge>
    <edge id=":gneJ60_4" function="internal">
        <lane id=":gneJ60_4_0" index="0" speed="13.89" length="3.40" shape="721.39,-131.19 722.14,-131.41 724.75,-131.65"/>
    </edge>
    <edge id=":gneJ61_0" function="internal">
        <lane id=":gneJ61_0_0" index="0" speed="13.89" length="0.10" shape="730.00,-131.65 730.00,-131.65"/>
    </edge>
    <edge id=":gneJ62_0" function="internal">
        <lane id=":gneJ62_0_0" index="0" speed="13.89" length="10.19" shape="737.01,-114.65 734.38,-116.17 732.57,-117.34 730.66,-118.09 727.73,-118.35"/>
    </edge>
    <edge id=":gneJ62_1" function="internal">
        <lane id=":gneJ62_1_0" index="0" speed="13.89" length="10.16" shape="737.89,-118.35 727.73,-118.35"/>
    </edge>
    <edge id=":gneJ63_0" function="internal">
        <lane id=":gneJ63_0_0" index="0" speed="13.89" length="9.21" shape="721.48,-118.35 712.27,-118.35"/>
    </edge>
    <edge id=":gneJ63_1" function="internal">
        <lane id=":gneJ63_1_0" index="0" speed="13.89" length="34.84" shape="721.48,-118.35 715.24,-120.65 706.07,-125.89 697.03,-131.62 691.20,-135.36"/>
    </edge>
    <edge id=":gneJ63_2" function="internal">
        <lane id=":gneJ63_2_0" index="0" speed="13.89" length="34.78" shape="721.48,-118.35 715.49,-121.02 706.90,-127.12 698.49,-133.78 693.07,-138.14"/>
    </edge>
    <edge id=":gneJ63_3" function="internal">
        <lane id=":gneJ63_3_0" index="0" speed="13.89" length="26.43" shape="721.48,-118.35 716.81,-120.57 711.16,-125.71 705.78,-131.52 701.94,-135.73"/>
    </edge>
    <edge id=":gneJ64_0" function="internal">
        <lane id=":gneJ64_0_0" index="0" speed="13.89" length="10.19" shape="737.01,-104.65 734.38,-106.17 732.57,-107.34 730.66,-108.09 727.73,-108.35"/>
    </edge>
    <edge id=":gneJ64_1" function="internal">
        <lane id=":gneJ64_1_0" index="0" speed="13.89" length="10.93" shape="738.67,-108.35 727.73,-108.35"/>
    </edge>
    <edge id=":gneJ64_2" function="internal">
        <lane id=":gneJ64_2_0" index="0" speed="13.89" length="10.90" shape="737.79,-112.05 735.04,-110.53 732.96,-109.36 730.79,-108.61 727.73,-108.35"/>
    </edge>
    <edge id=":gneJ65_0" function="internal">
        <lane id=":gneJ65_0_0" index="0" speed="13.89" length="18.99" shape="721.50,-108.35 717.16,-107.95 712.14,-106.99 707.13,-105.84 702.85,-104.89"/>
    </edge>
    <edge id=":gneJ65_1" function="internal">
        <lane id=":gneJ65_1_0" index="0" speed="13.89" length="19.32" shape="721.50,-108.35 702.18,-108.35"/>
    </edge>
    <edge id=":gneJ65_2" function="internal">
        <lane id=":gneJ65_2_0" index="0" speed="13.89" length="19.31" shape="721.50,-108.35 717.11,-108.75 711.97,-109.71 706.85,-110.86 702.52,-111.81"/>
    </edge>
    <edge id=":gneJ66_0" function="internal">
        <lane id=":gneJ66_0_0" index="0" speed="13.89" length="10.16" shape="738.67,-98.35 728.51,-98.35"/>
    </edge>
    <edge id=":gneJ66_1" function="internal">
        <lane id=":gneJ66_1_0" index="0" speed="13.89" length="10.19" shape="737.79,-102.05 735.16,-100.53 733.35,-99.36 731.44,-98.61 728.51,-98.35"/>
    </edge>
    <edge id=":gneJ67_0" function="internal">
        <lane id=":gneJ67_0_0" index="0" speed="13.89" length="5.06" shape="724.82,-98.35 723.44,-98.16 722.44,-97.57 721.85,-96.61 721.65,-95.25"/>
    </edge>
    <edge id=":gneJ67_1" function="internal">
        <lane id=":gneJ67_1_0" index="0" speed="13.89" length="6.27" shape="724.82,-98.35 718.55,-98.35"/>
    </edge>
    <edge id=":gneJ67_2" function="internal">
        <lane id=":gneJ67_2_0" index="0" speed="13.89" length="10.90" shape="720.47,-106.06 721.07,-103.00 721.43,-100.69 721.60,-98.36 721.65,-95.25"/>
    </edge>
    <edge id=":gneJ67_3" function="internal">
        <lane id=":gneJ67_3_0" index="0" speed="13.89" length="8.96" shape="720.47,-106.06 720.93,-102.69 720.76,-100.28 719.97,-98.83 718.55,-98.35"/>
    </edge>
    <edge id=":gneJ67_4" function="internal">
        <lane id=":gneJ67_4_0" index="0" speed="13.89" length="5.19" shape="717.09,-103.67 719.08,-102.12 720.51,-100.20 720.60,-99.95"/>
    </edge>
    <edge id=":gneJ67_5" function="internal">
        <lane id=":gneJ67_5_0" index="0" speed="13.89" length="5.95" shape="717.09,-103.67 720.50,-101.34 721.66,-99.95"/>
    </edge>
    <edge id=":gneJ67_6" function="internal">
        <lane id=":gneJ67_6_0" index="0" speed="13.89" length="4.85" shape="720.60,-99.95 721.36,-97.91 721.65,-95.25"/>
    </edge>
    <edge id=":gneJ67_7" function="internal">
        <lane id=":gneJ67_7_0" index="0" speed="13.89" length="4.25" shape="721.66,-99.95 721.89,-99.68 721.24,-98.68 718.55,-98.35"/>
    </edge>
    <edge id=":gneJ68_0" function="internal">
        <lane id=":gneJ68_0_0" index="0" speed="13.89" length="5.00" shape="714.75,-98.35 713.39,-98.16 712.43,-97.57 711.84,-96.61 711.65,-95.25"/>
    </edge>
    <edge id=":gneJ68_1" function="internal">
        <lane id=":gneJ68_1_0" index="0" speed="13.89" length="6.20" shape="714.75,-98.35 708.55,-98.35"/>
    </edge>
    <edge id=":gneJ68_2" function="internal">
        <lane id=":gneJ68_2_0" index="0" speed="13.89" length="10.28" shape="711.65,-105.53 711.65,-95.25"/>
    </edge>
    <edge id=":gneJ68_3" function="internal">
        <lane id=":gneJ68_3_0" index="0" speed="13.89" length="8.55" shape="711.65,-105.53 711.46,-102.39 710.88,-100.14 709.91,-98.80 708.55,-98.35"/>
    </edge>
    <edge id=":gneJ68_4" function="internal">
        <lane id=":gneJ68_4_0" index="0" speed="13.89" length="4.73" shape="707.89,-103.65 709.53,-102.06 710.71,-100.14 710.77,-99.95"/>
    </edge>
    <edge id=":gneJ68_5" function="internal">
        <lane id=":gneJ68_5_0" index="0" speed="13.89" length="5.16" shape="707.89,-103.65 710.58,-101.33 711.42,-99.95"/>
    </edge>
    <edge id=":gneJ68_6" function="internal">
        <lane id=":gneJ68_6_0" index="0" speed="13.89" length="4.81" shape="710.77,-99.95 711.41,-97.87 711.65,-95.25"/>
    </edge>
    <edge id=":gneJ68_7" function="internal">
        <lane id=":gneJ68_7_0" index="0" speed="13.89" length="3.91" shape="711.42,-99.95 711.59,-99.67 710.91,-98.68 708.55,-98.35"/>
    </edge>
    <edge id=":gneJ69_0" function="internal">
        <lane id=":gneJ69_0_0" index="0" speed="13.89" length="0.10" shape="711.65,-90.00 711.65,-90.00"/>
    </edge>
    <edge id=":gneJ70_0" function="internal">
        <lane id=":gneJ70_0_0" index="0" speed="13.89" length="5.04" shape="704.80,-98.35 703.42,-98.16 702.44,-97.57 701.85,-96.61 701.65,-95.25"/>
    </edge>
    <edge id=":gneJ70_1" function="internal">
        <lane id=":gneJ70_1_0" index="0" speed="13.89" length="22.19" shape="705.11,-117.15 704.16,-112.36 703.01,-106.24 702.05,-100.09 701.65,-95.25"/>
    </edge>
    <edge id=":gneJ70_2" function="internal">
        <lane id=":gneJ70_2_0" index="0" speed="13.89" length="22.25" shape="701.65,-117.50 701.65,-95.25"/>
    </edge>
    <edge id=":gneJ70_3" function="internal">
        <lane id=":gneJ70_3_0" index="0" speed="13.89" length="6.84" shape="697.86,-104.48 699.52,-102.48 700.70,-100.27 701.19,-98.61"/>
    </edge>
    <edge id=":gneJ70_4" function="internal">