<?xml version="1.0" encoding="UTF-8"?>

<!-- generated on 6/25/2018 12:23:51 PM by Netedit Version 0.32.0
<?xml version="1.0" encoding="UTF-8"?>

<configuration xmlns:xsi="http://www.w3.org/2001/XMLSchema-instance" xsi:noNamespaceSchemaLocation="http://sumo.dlr.de/xsd/netconvertConfiguration.xsd">

    <input>
        <sumo-net-file value="C:\Users\abeld\Downloads\Intersection\Normal%20Interchange\normal%20interchange.net.xml"/>
    </input>

    <output>
        <output-file value="C:\Users\abeld\Downloads\Intersection\Normal%20Interchange\normal%20interchange.net.xml"/>
        <plain-output-prefix value="C:\Users\abeld\Downloads\Intersection\Normal%20Interchange\NormalInterchange"/>
    </output>

    <processing>
        <no-turnarounds value="true"/>
        <offset.disable-normalization value="true"/>
        <lefthand value="false"/>
        <junctions.corner-detail value="0"/>
        <rectangular-lane-cut value="false"/>
        <walkingareas value="false"/>
    </processing>

</configuration>
-->

<connections version="0.27" xmlns:xsi="http://www.w3.org/2001/XMLSchema-instance" xsi:noNamespaceSchemaLocation="http://sumo.dlr.de/xsd/connections_file.xsd">
    <connection from="gneE100" to="gneE58" fromLane="0" toLane="0"/>
    <connection from="gneE100" to="gneE82" fromLane="0" toLane="0"/>

    <connection from="gneE102" to="gneE47" fromLane="0" toLane="0"/>
    <connection from="gneE102" to="gneE84" fromLane="0" toLane="0"/>

    <connection from="gneE104" to="gneE60" fromLane="0" toLane="0"/>
    <connection from="gneE104" to="gneE81" fromLane="0" toLane="0"/>

    <connection from="gneE105" to="gneE58" fromLane="0" toLane="0"/>
    <connection from="gneE105" to="gneE82" fromLane="0" toLane="0"/>

    <connection from="gneE106" to="gneE59" fromLane="0" toLane="0"/>

    <connection from="gneE107" to="gneE51" fromLane="0" toLane="0"/>

    <connection from="gneE108" to="gneE51" fromLane="0" toLane="0"/>

    <connection from="gneE109" to="gneE46" fromLane="0" toLane="0"/>

    <connection from="gneE11" to="gneE12" fromLane="0" toLane="0"/>

    <connection from="gneE110" to="gneE47" fromLane="0" toLane="0"/>
    <connection from="gneE110" to="gneE84" fromLane="0" toLane="0"/>

    <connection from="gneE111" to="gneE48" fromLane="0" toLane="0"/>
    <connection from="gneE111" to="gneE83" fromLane="0" toLane="0"/>

    <connection from="gneE112" to="gneE59" fromLane="0" toLane="0"/>

    <connection from="gneE113" to="gneE59" fromLane="0" toLane="0"/>

    <connection from="gneE114" to="gneE51" fromLane="0" toLane="0"/>

    <connection from="gneE115" to="gneE49" fromLane="0" toLane="0"/>
    <connection from="gneE115" to="gneE80" fromLane="0" toLane="0"/>

    <connection from="gneE116" to="gneE50" fromLane="0" toLane="0"/>
    <connection from="gneE116" to="gneE79" fromLane="0" toLane="0"/>

    <connection from="gneE117" to="gneE29" fromLane="0" toLane="0"/>

    <connection from="gneE118" to="gneE29" fromLane="0" toLane="0"/>

    <connection from="gneE119" to="gneE29" fromLane="0" toLane="0"/>

    <connection from="gneE12" to="gneE20" fromLane="0" toLane="0"/>
    <connection from="gneE12" to="gneE17" fromLane="0" toLane="0"/>
    <connection from="gneE12" to="gneE21" fromLane="0" toLane="0"/>

    <connection from="gneE120" to="gneE28" fromLane="0" toLane="0"/>
    <connection from="gneE120" to="gneE34" fromLane="0" toLane="0"/>

    <connection from="gneE121" to="gneE27" fromLane="0" toLane="0"/>
    <connection from="gneE121" to="gneE33" fromLane="0" toLane="0"/>

    <connection from="gneE122" to="gneE46" fromLane="0" toLane="0"/>

    <connection from="gneE123" to="gneE46" fromLane="0" toLane="0"/>

    <connection from="gneE124" to="gneE48" fromLane="0" toLane="0"/>
    <connection from="gneE124" to="gneE83" fromLane="0" toLane="0"/>

    <connection from="gneE125" to="gneE50" fromLane="0" toLane="0"/>
    <connection from="gneE125" to="gneE79" fromLane="0" toLane="0"/>

    <connection from="gneE126" to="gneE60" fromLane="0" toLane="0"/>
    <connection from="gneE126" to="gneE81" fromLane="0" toLane="0"/>

    <connection from="gneE127" to="gneE27" fromLane="0" toLane="0"/>
    <connection from="gneE127" to="gneE33" fromLane="0" toLane="0"/>

    <connection from="gneE128" to="gneE148" fromLane="0" toLane="0"/>
    <connection from="gneE128" to="gneE40" fromLane="0" toLane="0"/>
    <connection from="gneE128" to="gneE35" fromLane="0" toLane="0"/>

    <connection from="gneE130" to="gneE37" fromLane="0" toLane="0"/>
    <connection from="gneE130" to="gneE38" fromLane="0" toLane="0"/>
    <connection from="gneE130" to="gneE149" fromLane="0" toLane="0"/>

    <connection from="gneE131" to="gneE137" fromLane="0" toLane="0"/>
    <connection from="gneE131" to="gneE145" fromLane="0" toLane="0"/>
    <connection from="gneE131" to="gneE144" fromLane="0" toLane="0"/>

    <connection from="gneE132" to="gneE143" fromLane="0" toLane="0"/>
    <connection from="gneE132" to="gneE138" fromLane="0" toLane="0"/>
    <connection from="gneE132" to="gneE142" fromLane="0" toLane="0"/>

    <connection from="gneE133" to="gneE141" fromLane="0" toLane="0"/>
    <connection from="gneE133" to="gneE140" fromLane="0" toLane="0"/>
    <connection from="gneE133" to="gneE139" fromLane="0" toLane="0"/>

    <connection from="gneE134" to="gneE146" fromLane="0" toLane="0"/>
    <connection from="gneE134" to="gneE77" fromLane="0" toLane="0"/>
    <connection from="gneE134" to="gneE71" fromLane="0" toLane="0"/>

    <connection from="gneE135" to="gneE75" fromLane="0" toLane="0"/>
    <connection from="gneE135" to="gneE72" fromLane="0" toLane="0"/>
    <connection from="gneE135" to="gneE78" fromLane="0" toLane="0"/>

    <connection from="gneE136" to="gneE74" fromLane="0" toLane="0"/>
    <connection from="gneE136" to="gneE76" fromLane="0" toLane="0"/>
    <connection from="gneE136" to="gneE147" fromLane="0" toLane="0"/>

    <connection from="gneE14" to="gneE15" fromLane="0" toLane="0"/>

    <connection from="gneE146" to="gneE54" fromLane="0" toLane="0"/>

    <connection from="gneE147" to="gneE52" fromLane="0" toLane="0"/>

    <connection from="gneE148" to="gneE42" fromLane="0" toLane="0"/>

    <connection from="gneE149" to="gneE44" fromLane="0" toLane="0"/>

    <connection from="gneE15" to="gneE18" fromLane="0" toLane="0"/>
    <connection from="gneE15" to="gneE19" fromLane="0" toLane="0"/>
    <connection from="gneE15" to="gneE150" fromLane="0" toLane="0"/>

    <connection from="gneE150" to="gneE23" fromLane="0" toLane="0"/>

    <connection from="gneE151" to="gneE25" fromLane="0" toLane="0"/>

    <connection from="gneE152" to="gneE63" fromLane="0" toLane="0"/>

    <connection from="gneE153" to="gneE61" fromLane="0" toLane="0"/>

    <connection from="gneE16" to="gneE23" fromLane="0" toLane="0"/>

    <connection from="gneE163" to="gneE5" fromLane="0" toLane="0"/>

    <connection from="gneE164" to="gneE11" fromLane="0" toLane="0"/>

    <connection from="gneE165" to="gneE14" fromLane="0" toLane="0"/>

    <connection from="gneE17" to="gneE24" fromLane="0" toLane="0"/>

    <connection from="gneE175" to="gneE128" fromLane="0" toLane="0"/>

    <connection from="gneE176" to="gneE129" fromLane="0" toLane="0"/>

    <connection from="gneE177" to="gneE130" fromLane="0" toLane="0"/>

    <connection from="gneE18" to="gneE25" fromLane="0" toLane="0"/>

    <connection from="gneE187" to="gneE95" fromLane="0" toLane="0"/>

    <connection from="gneE188" to="gneE96" fromLane="0" toLane="0"/>

    <connection from="gneE189" to="gneE97" fromLane="0" toLane="0"/>

    <connection from="gneE19" to="gneE24" fromLane="0" toLane="0"/>

    <connection from="gneE190" to="gneE136" fromLane="0" toLane="0"/>

    <connection from="gneE191" to="gneE135" fromLane="0" toLane="0"/>

    <connection from="gneE192" to="gneE134" fromLane="0" toLane="0"/>

    <connection from="gneE20" to="gneE25" fromLane="0" toLane="0"/>

    <connection from="gneE21" to="gneE23" fromLane="0" toLane="0"/>

    <connection from="gneE22" to="gneE24" fromLane="0" toLane="0"/>

    <connection from="gneE23" to="gneE107" fromLane="0" toLane="0"/>
    <connection from="gneE23" to="gneE104" fromLane="0" toLane="0"/>
    <connection from="gneE23" to="gneE105" fromLane="0" toLane="0"/>
    <connection from="gneE23" to="gneE106" fromLane="0" toLane="0"/>

    <connection from="gneE24" to="gneE125" fromLane="0" toLane="0"/>
    <connection from="gneE24" to="gneE56" fromLane="0" toLane="0"/>
    <connection from="gneE24" to="gneE108" fromLane="0" toLane="0"/>

    <connection from="gneE25" to="gneE27" fromLane="0" toLane="0"/>
    <connection from="gneE25" to="gneE33" fromLane="0" toLane="0"/>

    <connection from="gneE27" to="gneE30" fromLane="0" toLane="0"/>

    <connection from="gneE28" to="gneE31" fromLane="0" toLane="0"/>

    <connection from="gneE29" to="gneE32" fromLane="0" toLane="0"/>

    <connection from="gneE30" to="gneE166" fromLane="0" toLane="0"/>
    <connection from="gneE30" to="gneE172" fromLane="0" toLane="0"/>
    <connection from="gneE30" to="gneE173" fromLane="0" toLane="0"/>

    <connection from="gneE31" to="gneE171" fromLane="0" toLane="0"/>
    <connection from="gneE31" to="gneE167" fromLane="0" toLane="0"/>
    <connection from="gneE31" to="gneE170" fromLane="0" toLane="0"/>

    <connection from="gneE32" to="gneE174" fromLane="0" toLane="0"/>
    <connection from="gneE32" to="gneE169" fromLane="0" toLane="0"/>
    <connection from="gneE32" to="gneE168" fromLane="0" toLane="0"/>

    <connection from="gneE33" to="gneE28" fromLane="0" toLane="0"/>
    <connection from="gneE33" to="gneE34" fromLane="0" toLane="0"/>

    <connection from="gneE34" to="gneE29" fromLane="0" toLane="0"/>

    <connection from="gneE35" to="gneE44" fromLane="0" toLane="0"/>

    <connection from="gneE36" to="gneE43" fromLane="0" toLane="0"/>

    <connection from="gneE37" to="gneE42" fromLane="0" toLane="0"/>

    <connection from="gneE38" to="gneE43" fromLane="0" toLane="0"/>

    <connection from="gneE39" to="gneE44" fromLane="0" toLane="0"/>

    <connection from="gneE40" to="gneE43" fromLane="0" toLane="0"/>

    <connection from="gneE41" to="gneE42" fromLane="0" toLane="0"/>

    <connection from="gneE42" to="gneE50" fromLane="0" toLane="0"/>
    <connection from="gneE42" to="gneE79" fromLane="0" toLane="0"/>

    <connection from="gneE43" to="gneE126" fromLane="0" toLane="0"/>
    <connection from="gneE43" to="gneE100" fromLane="0" toLane="0"/>
    <connection from="gneE43" to="gneE113" fromLane="0" toLane="0"/>

    <connection from="gneE44" to="gneE112" fromLane="0" toLane="0"/>
    <connection from="gneE44" to="gneE111" fromLane="0" toLane="0"/>
    <connection from="gneE44" to="gneE110" fromLane="0" toLane="0"/>
    <connection from="gneE44" to="gneE109" fromLane="0" toLane="0"/>

    <connection from="gneE46" to="gneE85" fromLane="0" toLane="0"/>

    <connection from="gneE47" to="gneE86" fromLane="0" toLane="0"/>

    <connection from="gneE48" to="gneE87" fromLane="0" toLane="0"/>

    <connection from="gneE49" to="gneE132" fromLane="0" toLane="0"/>

    <connection from="gneE5" to="gneE6" fromLane="0" toLane="0"/>

    <connection from="gneE50" to="gneE131" fromLane="0" toLane="0"/>

    <connection from="gneE51" to="gneE133" fromLane="0" toLane="0"/>

    <connection from="gneE52" to="gneE122" fromLane="0" toLane="0"/>
    <connection from="gneE52" to="gneE121" fromLane="0" toLane="0"/>
    <connection from="gneE52" to="gneE120" fromLane="0" toLane="0"/>
    <connection from="gneE52" to="gneE119" fromLane="0" toLane="0"/>

    <connection from="gneE53" to="gneE124" fromLane="0" toLane="0"/>
    <connection from="gneE53" to="gneE102" fromLane="0" toLane="0"/>
    <connection from="gneE53" to="gneE123" fromLane="0" toLane="0"/>

    <connection from="gneE54" to="gneE60" fromLane="0" toLane="0"/>
    <connection from="gneE54" to="gneE81" fromLane="0" toLane="0"/>

    <connection from="gneE56" to="gneE49" fromLane="0" toLane="0"/>
    <connection from="gneE56" to="gneE80" fromLane="0" toLane="0"/>

    <connection from="gneE58" to="gneE93" fromLane="0" toLane="0"/>

    <connection from="gneE59" to="gneE94" fromLane="0" toLane="0"/>

    <connection from="gneE6" to="gneE151" fromLane="0" toLane="0"/>
    <connection from="gneE6" to="gneE22" fromLane="0" toLane="0"/>
    <connection from="gneE6" to="gneE16" fromLane="0" toLane="0"/>

    <connection from="gneE60" to="gneE92" fromLane="0" toLane="0"/>

    <connection from="gneE61" to="gneE117" fromLane="0" toLane="0"/>
    <connection from="gneE61" to="gneE116" fromLane="0" toLane="0"/>
    <connection from="gneE61" to="gneE115" fromLane="0" toLane="0"/>
    <connection from="gneE61" to="gneE114" fromLane="0" toLane="0"/>

    <connection from="gneE62" to="gneE127" fromLane="0" toLane="0"/>
    <connection from="gneE62" to="gneE98" fromLane="0" toLane="0"/>
    <connection from="gneE62" to="gneE118" fromLane="0" toLane="0"/>

    <connection from="gneE63" to="gneE48" fromLane="0" toLane="0"/>
    <connection from="gneE63" to="gneE83" fromLane="0" toLane="0"/>

    <connection from="gneE64" to="gneE63" fromLane="0" toLane="0"/>

    <connection from="gneE65" to="gneE62" fromLane="0" toLane="0"/>

    <connection from="gneE66" to="gneE61" fromLane="0" toLane="0"/>

    <connection from="gneE67" to="gneE62" fromLane="0" toLane="0"/>

    <connection from="gneE68" to="gneE63" fromLane="0" toLane="0"/>

    <connection from="gneE69" to="gneE61" fromLane="0" toLane="0"/>

    <connection from="gneE70" to="gneE62" fromLane="0" toLane="0"/>

    <connection from="gneE71" to="gneE52" fromLane="0" toLane="0"/>

    <connection from="gneE72" to="gneE53" fromLane="0" toLane="0"/>

    <connection from="gneE74" to="gneE54" fromLane="0" toLane="0"/>

    <connection from="gneE75" to="gneE54" fromLane="0" toLane="0"/>

    <connection from="gneE76" to="gneE53" fromLane="0" toLane="0"/>

    <connection from="gneE77" to="gneE53" fromLane="0" toLane="0"/>

    <connection from="gneE78" to="gneE52" fromLane="0" toLane="0"/>

    <connection from="gneE79" to="gneE49" fromLane="0" toLane="0"/>
    <connection from="gneE79" to="gneE80" fromLane="0" toLane="0"/>

    <connection from="gneE80" to="gneE51" fromLane="0" toLane="0"/>

    <connection from="gneE81" to="gneE58" fromLane="0" toLane="0"/>
    <connection from="gneE81" to="gneE82" fromLane="0" toLane="0"/>

    <connection from="gneE82" to="gneE59" fromLane="0" toLane="0"/>

    <connection from="gneE83" to="gneE47" fromLane="0" toLane="0"/>
    <connection from="gneE83" to="gneE84" fromLane="0" toLane="0"/>

    <connection from="gneE84" to="gneE46" fromLane="0" toLane="0"/>

    <connection from="gneE85" to="gneE161" fromLane="0" toLane="0"/>
    <connection from="gneE85" to="gneE157" fromLane="0" toLane="0"/>
    <connection from="gneE85" to="gneE156" fromLane="0" toLane="0"/>

    <connection from="gneE86" to="gneE160" fromLane="0" toLane="0"/>
    <connection from="gneE86" to="gneE155" fromLane="0" toLane="0"/>
    <connection from="gneE86" to="gneE158" fromLane="0" toLane="0"/>

    <connection from="gneE87" to="gneE154" fromLane="0" toLane="0"/>
    <connection from="gneE87" to="gneE159" fromLane="0" toLane="0"/>
    <connection from="gneE87" to="gneE162" fromLane="0" toLane="0"/>

    <connection from="gneE92" to="gneE178" fromLane="0" toLane="0"/>
    <connection from="gneE92" to="gneE184" fromLane="0" toLane="0"/>
    <connection from="gneE92" to="gneE185" fromLane="0" toLane="0"/>

    <connection from="gneE93" to="gneE183" fromLane="0" toLane="0"/>
    <connection from="gneE93" to="gneE179" fromLane="0" toLane="0"/>
    <connection from="gneE93" to="gneE181" fromLane="0" toLane="0"/>

    <connection from="gneE94" to="gneE186" fromLane="0" toLane="0"/>
    <connection from="gneE94" to="gneE182" fromLane="0" toLane="0"/>
    <connection from="gneE94" to="gneE180" fromLane="0" toLane="0"/>

    <connection from="gneE95" to="gneE152" fromLane="0" toLane="0"/>
    <connection from="gneE95" to="gneE70" fromLane="0" toLane="0"/>
    <connection from="gneE95" to="gneE66" fromLane="0" toLane="0"/>

    <connection from="gneE96" to="gneE68" fromLane="0" toLane="0"/>
    <connection from="gneE96" to="gneE65" fromLane="0" toLane="0"/>
    <connection from="gneE96" to="gneE69" fromLane="0" toLane="0"/>

    <connection from="gneE97" to="gneE64" fromLane="0" toLane="0"/>
    <connection from="gneE97" to="gneE67" fromLane="0" toLane="0"/>
    <connection from="gneE97" to="gneE153" fromLane="0" toLane="0"/>

    <connection from="gneE98" to="gneE28" fromLane="0" toLane="0"/>
    <connection from="gneE98" to="gneE34" fromLane="0" toLane="0"/>

</connections>
