<?xml version="1.0" encoding="UTF-8"?>

<!-- generated on 6/25/2018 1:22:05 PM by Netedit Version 0.32.0
<?xml version="1.0" encoding="UTF-8"?>

<configuration xmlns:xsi="http://www.w3.org/2001/XMLSchema-instance" xsi:noNamespaceSchemaLocation="http://sumo.dlr.de/xsd/netconvertConfiguration.xsd">

    <input>
        <sumo-net-file value="C:\Users\abeld\Downloads\Intersection\DivergingWindmill.net.xml"/>
    </input>

    <output>
        <output-file value="C:\Users\abeld\Downloads\Intersection\DivergingWindmill.net.xml"/>
    </output>

    <processing>
        <no-turnarounds value="true"/>
        <offset.disable-normalization value="true"/>
        <lefthand value="false"/>
        <junctions.corner-detail value="0"/>
        <rectangular-lane-cut value="false"/>
        <walkingareas value="false"/>
    </processing>

</configuration>
-->

<net version="0.27" xmlns:xsi="http://www.w3.org/2001/XMLSchema-instance" xsi:noNamespaceSchemaLocation="http://sumo.dlr.de/xsd/net_file.xsd">

    <location netOffset="0.00,0.00" convBoundary="-620.00,-570.00,800.00,780.00" origBoundary="-10000000000.00,-10000000000.00,10000000000.00,10000000000.00" projParameter="!"/>

    <edge id=":gneJ10_0" function="internal">
        <lane id=":gneJ10_0_0" index="0" speed="13.89" length="0.10" shape="38.35,250.00 38.35,250.00"/>
    </edge>
    <edge id=":gneJ102_0" function="internal">
        <lane id=":gneJ102_0_0" index="0" speed="13.89" length="13.12" shape="290.51,85.24 287.25,84.01 284.34,82.85 281.37,81.99 277.97,81.65"/>
    </edge>
    <edge id=":gneJ102_1" function="internal">
        <lane id=":gneJ102_1_0" index="0" speed="13.89" length="13.12" shape="291.09,81.65 277.97,81.65"/>
    </edge>
    <edge id=":gneJ103_0" function="internal">
        <lane id=":gneJ103_0_0" index="0" speed="13.89" length="13.12" shape="290.51,95.24 287.25,94.01 284.34,92.85 281.37,91.99 277.97,91.65"/>
    </edge>
    <edge id=":gneJ103_1" function="internal">
        <lane id=":gneJ103_1_0" index="0" speed="13.89" length="13.65" shape="291.63,91.65 277.97,91.65"/>
    </edge>
    <edge id=":gneJ103_2" function="internal">
        <lane id=":gneJ103_2_0" index="0" speed="13.89" length="13.63" shape="291.04,88.06 287.70,89.29 284.60,90.45 281.46,91.31 277.97,91.65"/>
    </edge>
    <edge id=":gneJ104_0" function="internal">
        <lane id=":gneJ104_0_0" index="0" speed="13.89" length="13.12" shape="291.63,101.65 278.51,101.65"/>
    </edge>
    <edge id=":gneJ104_1" function="internal">
        <lane id=":gneJ104_1_0" index="0" speed="13.89" length="13.12" shape="291.04,98.06 287.79,99.29 284.87,100.45 281.91,101.31 278.51,101.65"/>
    </edge>
    <edge id=":gneJ11_0" function="internal">
        <lane id=":gneJ11_0_0" index="0" speed="13.89" length="0.10" shape="38.35,-100.00 38.35,-100.00"/>
    </edge>
    <edge id=":gneJ12_0" function="internal">
        <lane id=":gneJ12_0_0" index="0" speed="13.89" length="0.10" shape="28.35,250.00 28.35,250.00"/>
    </edge>
    <edge id=":gneJ134_0" function="internal">
        <lane id=":gneJ134_0_0" index="0" speed="13.89" length="13.12" shape="-181.63,48.35 -168.51,48.35"/>
    </edge>
    <edge id=":gneJ134_1" function="internal">
        <lane id=":gneJ134_1_0" index="0" speed="13.89" length="13.12" shape="-181.04,51.94 -177.79,50.71 -174.87,49.55 -171.91,48.69 -168.51,48.35"/>
    </edge>
    <edge id=":gneJ135_0" function="internal">
        <lane id=":gneJ135_0_0" index="0" speed="13.89" length="13.12" shape="-180.51,54.76 -177.25,55.99 -174.34,57.15 -171.37,58.01 -167.97,58.35"/>
    </edge>
    <edge id=":gneJ135_1" function="internal">
        <lane id=":gneJ135_1_0" index="0" speed="13.89" length="13.65" shape="-181.63,58.35 -167.97,58.35"/>
    </edge>
    <edge id=":gneJ135_2" function="internal">
        <lane id=":gneJ135_2_0" index="0" speed="13.89" length="13.63" shape="-181.04,61.94 -177.70,60.71 -174.60,59.55 -171.46,58.69 -167.97,58.35"/>
    </edge>
    <edge id=":gneJ136_0" function="internal">
        <lane id=":gneJ136_0_0" index="0" speed="13.89" length="13.12" shape="-180.51,64.76 -177.25,65.99 -174.34,67.15 -171.37,68.01 -167.97,68.35"/>
    </edge>
    <edge id=":gneJ136_1" function="internal">
        <lane id=":gneJ136_1_0" index="0" speed="13.89" length="13.12" shape="-181.09,68.35 -167.97,68.35"/>
    </edge>
    <edge id=":gneJ141_0" function="internal">
        <lane id=":gneJ141_0_0" index="0" speed="13.89" length="13.12" shape="48.35,311.09 48.35,297.97"/>
    </edge>
    <edge id=":gneJ141_1" function="internal">
        <lane id=":gneJ141_1_0" index="0" speed="13.89" length="13.12" shape="44.76,310.51 45.99,307.25 47.15,304.34 48.01,301.37 48.35,297.97"/>
    </edge>
    <edge id=":gneJ142_0" function="internal">
        <lane id=":gneJ142_0_0" index="0" speed="13.89" length="13.65" shape="38.35,311.63 38.35,297.97"/>
    </edge>
    <edge id=":gneJ142_1" function="internal">
        <lane id=":gneJ142_1_0" index="0" speed="13.89" length="13.63" shape="41.94,311.04 40.71,307.70 39.55,304.60 38.69,301.46 38.35,297.97"/>
    </edge>
    <edge id=":gneJ142_2" function="internal">
        <lane id=":gneJ142_2_0" index="0" speed="13.89" length="13.12" shape="34.76,310.51 35.99,307.25 37.15,304.34 38.01,301.37 38.35,297.97"/>
    </edge>
    <edge id=":gneJ143_0" function="internal">
        <lane id=":gneJ143_0_0" index="0" speed="13.89" length="13.12" shape="28.35,311.63 28.35,298.51"/>
    </edge>
    <edge id=":gneJ143_1" function="internal">
        <lane id=":gneJ143_1_0" index="0" speed="13.89" length="13.12" shape="31.94,311.04 30.71,307.79 29.55,304.87 28.69,301.91 28.35,298.51"/>
    </edge>
    <edge id=":gneJ145_0" function="internal">
        <lane id=":gneJ145_0_0" index="0" speed="13.89" length="13.12" shape="81.65,-161.63 81.65,-148.51"/>
    </edge>
    <edge id=":gneJ145_1" function="internal">
        <lane id=":gneJ145_1_0" index="0" speed="13.89" length="13.12" shape="78.06,-161.04 79.29,-157.79 80.45,-154.87 81.31,-151.91 81.65,-148.51"/>
    </edge>
    <edge id=":gneJ146_0" function="internal">
        <lane id=":gneJ146_0_0" index="0" speed="13.89" length="13.12" shape="75.24,-160.51 74.01,-157.25 72.85,-154.34 71.99,-151.37 71.65,-147.97"/>
    </edge>
    <edge id=":gneJ146_1" function="internal">
        <lane id=":gneJ146_1_0" index="0" speed="13.89" length="13.65" shape="71.65,-161.63 71.65,-147.97"/>
    </edge>
    <edge id=":gneJ146_2" function="internal">
        <lane id=":gneJ146_2_0" index="0" speed="13.89" length="13.63" shape="68.06,-161.04 69.29,-157.70 70.45,-154.60 71.31,-151.46 71.65,-147.97"/>
    </edge>
    <edge id=":gneJ147_0" function="internal">
        <lane id=":gneJ147_0_0" index="0" speed="13.89" length="13.12" shape="65.24,-160.51 64.01,-157.25 62.85,-154.34 61.99,-151.37 61.65,-147.97"/>
    </edge>
    <edge id=":gneJ147_1" function="internal">
        <lane id=":gneJ147_1_0" index="0" speed="13.89" length="13.12" shape="61.65,-161.09 61.65,-147.97"/>
    </edge>
    <edge id=":gneJ15_0" function="internal">
        <lane id=":gneJ15_0_0" index="0" speed="13.89" length="0.10" shape="270.00,48.35 270.00,48.35"/>
    </edge>
    <edge id=":gneJ16_0" function="internal">
        <lane id=":gneJ16_0_0" index="0" speed="13.89" length="0.10" shape="-160.00,58.35 -160.00,58.35"/>
    </edge>
    <edge id=":gneJ165_0" function="internal">
        <lane id=":gneJ165_0_0" index="0" speed="13.89" length="0.10" shape="28.35,-100.00 28.35,-100.00"/>
    </edge>
    <edge id=":gneJ2_0" function="internal">
        <lane id=":gneJ2_0_0" index="0" speed="13.89" length="0.10" shape="61.65,-100.00 61.65,-100.00"/>
    </edge>
    <edge id=":gneJ207_0" function="internal">
        <lane id=":gneJ207_0_0" index="0" speed="13.89" length="0.10" shape="61.65,250.00 61.65,250.00"/>
    </edge>
    <edge id=":gneJ208_0" function="internal">
        <lane id=":gneJ208_0_0" index="0" speed="13.89" length="0.10" shape="48.35,-100.00 48.35,-100.00"/>
    </edge>
    <edge id=":gneJ21_0" function="internal">
        <lane id=":gneJ21_0_0" index="0" speed="13.89" length="0.10" shape="-160.00,81.65 -160.00,81.65"/>
    </edge>
    <edge id=":gneJ24_0" function="internal">
        <lane id=":gneJ24_0_0" index="0" speed="13.89" length="0.32" shape="270.32,101.65 270.23,101.65 270.16,101.65 270.10,101.66 270.01,101.68"/>
    </edge>
    <edge id=":gneJ266_0" function="internal">
        <lane id=":gneJ266_0_0" index="0" speed="13.89" length="0.95" shape="81.65,-70.98 81.66,-70.70 81.69,-70.51 81.77,-70.33 81.92,-70.10"/>
    </edge>
    <edge id=":gneJ268_0" function="internal">
        <lane id=":gneJ268_0_0" index="0" speed="13.89" length="0.10" shape="61.65,-70.00 61.65,-70.00"/>
    </edge>
    <edge id=":gneJ269_0" function="internal">
        <lane id=":gneJ269_0_0" index="0" speed="13.89" length="0.75" shape="71.65,-70.77 71.65,-70.55 71.67,-70.39 71.72,-70.25 71.82,-70.05"/>
    </edge>
    <edge id=":gneJ278_0" function="internal">
        <lane id=":gneJ278_0_0" index="0" speed="13.89" length="0.10" shape="71.65,220.00 71.65,220.00"/>
    </edge>
    <edge id=":gneJ279_0" function="internal">
        <lane id=":gneJ279_0_0" index="0" speed="13.89" length="0.10" shape="61.65,220.00 61.65,220.00"/>
    </edge>
    <edge id=":gneJ284_0" function="internal">
        <lane id=":gneJ284_0_0" index="0" speed="13.89" length="0.10" shape="81.65,220.00 81.65,220.00"/>
    </edge>
    <edge id=":gneJ290_0" function="internal">
        <lane id=":gneJ290_0_0" index="0" speed="13.89" length="0.75" shape="61.65,-30.77 61.65,-30.55 61.67,-30.39 61.72,-30.25 61.82,-30.05"/>
    </edge>
    <edge id=":gneJ293_0" function="internal">
        <lane id=":gneJ293_0_0" index="0" speed="13.89" length="0.10" shape="81.48,9.26 81.48,9.26"/>
    </edge>
    <edge id=":gneJ294_0" function="internal">
        <lane id=":gneJ294_0_0" index="0" speed="13.89" length="0.75" shape="101.48,49.27 101.58,49.47 101.63,49.62 101.65,49.77 101.65,49.99"/>
    </edge>
    <edge id=":gneJ295_0" function="internal">
        <lane id=":gneJ295_0_0" index="0" speed="13.89" length="0.39" shape="101.65,80.01 101.65,80.12 101.64,80.20 101.63,80.28 101.60,80.39"/>
    </edge>
    <edge id=":gneJ296_0" function="internal">
        <lane id=":gneJ296_0_0" index="0" speed="13.89" length="0.35" shape="91.60,120.41 91.57,120.51 91.55,120.57 91.52,120.64 91.48,120.73"/>
    </edge>
    <edge id=":gneJ297_0" function="internal">
        <lane id=":gneJ297_0_0" index="0" speed="13.89" length="0.23" shape="81.58,140.53 81.55,140.59 81.53,140.63 81.51,140.68 81.49,140.74"/>
    </edge>
    <edge id=":gneJ298_0" function="internal">
        <lane id=":gneJ298_0_0" index="0" speed="13.89" length="0.52" shape="71.73,170.02 71.69,170.17 71.66,170.27 71.65,170.37 71.65,170.53"/>
    </edge>
    <edge id=":gneJ299_0" function="internal">
        <lane id=":gneJ299_0_0" index="0" speed="13.89" length="0.10" shape="71.65,200.00 71.65,200.00"/>
    </edge>
    <edge id=":gneJ302_0" function="internal">
        <lane id=":gneJ302_0_0" index="0" speed="13.89" length="0.75" shape="-120.77,58.35 -120.55,58.35 -120.39,58.33 -120.25,58.28 -120.05,58.18"/>
    </edge>
    <edge id=":gneJ303_0" function="internal">
        <lane id=":gneJ303_0_0" index="0" speed="13.89" length="0.23" shape="-100.73,48.52 -100.67,48.49 -100.63,48.47 -100.59,48.46 -100.53,48.44"/>
    </edge>
    <edge id=":gneJ304_0" function="internal">
        <lane id=":gneJ304_0_0" index="0" speed="13.89" length="0.23" shape="-70.74,38.51 -70.68,38.49 -70.63,38.47 -70.59,38.45 -70.53,38.42"/>
    </edge>
    <edge id=":gneJ305_0" function="internal">
        <lane id=":gneJ305_0_0" index="0" speed="13.89" length="0.75" shape="-30.73,18.52 -30.53,18.42 -30.38,18.37 -30.23,18.35 -30.01,18.35"/>
    </edge>
    <edge id=":gneJ306_0" function="internal">
        <lane id=":gneJ306_0_0" index="0" speed="13.89" length="0.10" shape="10.00,18.35 10.00,18.35"/>
    </edge>
    <edge id=":gneJ307_0" function="internal">
        <lane id=":gneJ307_0_0" index="0" speed="13.89" length="0.95" shape="50.02,18.35 50.30,18.36 50.49,18.39 50.67,18.47 50.90,18.62"/>
    </edge>
    <edge id=":gneJ308_0" function="internal">
        <lane id=":gneJ308_0_0" index="0" speed="13.89" length="1.07" shape="80.93,38.64 81.19,38.82 81.35,38.97 81.45,39.17 81.56,39.46"/>
    </edge>
    <edge id=":gneJ309_0" function="internal">
        <lane id=":gneJ309_0_0" index="0" speed="13.89" length="0.92" shape="91.57,69.49 91.65,69.75 91.68,69.94 91.66,70.12 91.60,70.39"/>
    </edge>
    <edge id=":gneJ310_0" function="internal">
        <lane id=":gneJ310_0_0" index="0" speed="13.89" length="0.35" shape="81.60,110.41 81.57,110.51 81.55,110.57 81.52,110.64 81.48,110.73"/>
    </edge>
    <edge id=":gneJ311_0" function="internal">
        <lane id=":gneJ311_0_0" index="0" speed="13.89" length="0.75" shape="61.82,150.05 61.72,150.25 61.67,150.39 61.65,150.55 61.65,150.77"/>
    </edge>
    <edge id=":gneJ312_0" function="internal">
        <lane id=":gneJ312_0_0" index="0" speed="13.89" length="0.10" shape="61.65,170.00 61.65,170.00"/>
    </edge>
    <edge id=":gneJ315_0" function="internal">
        <lane id=":gneJ315_0_0" index="0" speed="13.89" length="0.10" shape="220.32,111.62 220.32,111.62"/>
    </edge>
    <edge id=":gneJ316_0" function="internal">
        <lane id=":gneJ316_0_0" index="0" speed="13.89" length="0.43" shape="170.75,121.53 170.63,121.56 170.54,121.58 170.46,121.61 170.35,121.67"/>
    </edge>
    <edge id=":gneJ317_0" function="internal">
        <lane id=":gneJ317_0_0" index="0" speed="13.89" length="0.20" shape="130.92,141.39 130.87,141.41 130.83,141.43 130.80,141.45 130.75,141.49"/>
    </edge>
    <edge id=":gneJ318_0" function="internal">
        <lane id=":gneJ318_0_0" index="0" speed="13.89" length="0.84" shape="101.63,160.89 101.43,161.03 101.30,161.15 101.20,161.29 101.09,161.51"/>
    </edge>
    <edge id=":gneJ319_0" function="internal">
        <lane id=":gneJ319_0_0" index="0" speed="13.89" length="0.10" shape="91.48,180.74 91.48,180.74"/>
    </edge>
    <edge id=":gneJ320_0" function="internal">
        <lane id=":gneJ320_0_0" index="0" speed="13.89" length="0.75" shape="81.82,200.05 81.72,200.25 81.67,200.39 81.65,200.55 81.65,200.77"/>
    </edge>
    <edge id=":gneJ322_0" function="internal">
        <lane id=":gneJ322_0_0" index="0" speed="13.89" length="0.32" shape="101.19,-41.18 101.25,-41.11 101.29,-41.05 101.33,-41.01 101.39,-40.94"/>
    </edge>
    <edge id=":gneJ323_0" function="internal">
        <lane id=":gneJ323_0_0" index="0" speed="13.89" length="0.10" shape="121.17,-21.17 121.17,-21.17"/>
    </edge>
    <edge id=":gneJ324_0" function="internal">
        <lane id=":gneJ324_0_0" index="0" speed="13.89" length="0.52" shape="140.79,-1.54 140.90,-1.43 140.98,-1.36 141.07,-1.31 141.21,-1.24"/>
    </edge>
    <edge id=":gneJ325_0" function="internal">
        <lane id=":gneJ325_0_0" index="0" speed="13.89" length="0.10" shape="160.74,8.52 160.74,8.52"/>
    </edge>
    <edge id=":gneJ326_0" function="internal">
        <lane id=":gneJ326_0_0" index="0" speed="13.89" length="0.10" shape="180.74,18.52 180.74,18.52"/>
    </edge>
    <edge id=":gneJ327_0" function="internal">
        <lane id=":gneJ327_0_0" index="0" speed="13.89" length="0.10" shape="200.74,28.52 200.74,28.52"/>
    </edge>
    <edge id=":gneJ328_0" function="internal">
        <lane id=":gneJ328_0_0" index="0" speed="13.89" length="0.10" shape="220.74,38.52 220.74,38.52"/>
    </edge>
    <edge id=":gneJ329_0" function="internal">
        <lane id=":gneJ329_0_0" index="0" speed="13.89" length="0.75" shape="240.05,48.18 240.25,48.28 240.39,48.33 240.55,48.35 240.77,48.35"/>
    </edge>
    <edge id=":gneJ331_0" function="internal">
        <lane id=":gneJ331_0_0" index="0" speed="13.89" length="0.23" shape="81.48,-50.73 81.51,-50.67 81.53,-50.63 81.54,-50.59 81.56,-50.53"/>
    </edge>
    <edge id=":gneJ332_0" function="internal">
        <lane id=":gneJ332_0_0" index="0" speed="13.89" length="0.23" shape="91.49,-20.74 91.51,-20.68 91.53,-20.63 91.55,-20.59 91.58,-20.53"/>
    </edge>
    <edge id=":gneJ333_0" function="internal">
        <lane id=":gneJ333_0_0" index="0" speed="13.89" length="0.23" shape="101.48,-0.73 101.51,-0.67 101.53,-0.63 101.54,-0.59 101.56,-0.53"/>
    </edge>
    <edge id=":gneJ334_0" function="internal">
        <lane id=":gneJ334_0_0" index="0" speed="13.89" length="0.10" shape="111.57,29.48 111.57,29.48"/>
    </edge>
    <edge id=":gneJ335_0" function="internal">
        <lane id=":gneJ335_0_0" index="0" speed="13.89" length="0.52" shape="121.57,59.49 121.61,59.63 121.64,59.73 121.65,59.84 121.65,59.99"/>
    </edge>
    <edge id=":gneJ336_0" function="internal">
        <lane id=":gneJ336_0_0" index="0" speed="13.89" length="0.75" shape="121.65,80.01 121.65,80.23 121.63,80.38 121.58,80.53 121.48,80.73"/>
    </edge>
    <edge id=":gneJ337_0" function="internal">
        <lane id=":gneJ337_0_0" index="0" speed="13.89" length="1.18" shape="111.47,100.75 111.30,101.06 111.15,101.25 110.95,101.39 110.63,101.52"/>
    </edge>
    <edge id=":gneJ338_0" function="internal">
        <lane id=":gneJ338_0_0" index="0" speed="13.89" length="0.61" shape="60.60,121.54 60.44,121.60 60.31,121.63 60.19,121.65 60.01,121.65"/>
    </edge>
    <edge id=":gneJ339_0" function="internal">
        <lane id=":gneJ339_0_0" index="0" speed="13.89" length="0.75" shape="19.99,121.65 19.77,121.65 19.62,121.63 19.47,121.58 19.27,121.48"/>
    </edge>
    <edge id=":gneJ340_0" function="internal">
        <lane id=":gneJ340_0_0" index="0" speed="13.89" length="0.35" shape="-20.42,101.64 -20.51,101.59 -20.58,101.56 -20.65,101.54 -20.75,101.51"/>
    </edge>
    <edge id=":gneJ341_0" function="internal">
        <lane id=":gneJ341_0_0" index="0" speed="13.89" length="0.12" shape="-60.40,91.60 -60.52,91.57"/>
    </edge>
    <edge id=":gneJ342_0" function="internal">
        <lane id=":gneJ342_0_0" index="0" speed="13.89" length="0.52" shape="-90.02,81.73 -90.17,81.69 -90.27,81.66 -90.37,81.65 -90.53,81.65"/>
    </edge>
    <edge id=":gneJ343_0" function="internal">
        <lane id=":gneJ343_0_0" index="0" speed="13.89" length="0.10" shape="-110.00,81.65 -110.00,81.65"/>
    </edge>
    <edge id=":gneJ344_0" function="internal">
        <lane id=":gneJ344_0_0" index="0" speed="13.89" length="0.10" shape="-140.00,81.65 -140.00,81.65"/>
    </edge>
    <edge id=":gneJ38_0" function="internal">
        <lane id=":gneJ38_0_0" index="0" speed="13.89" length="13.12" shape="768.51,48.35 781.63,48.35"/>
    </edge>
    <edge id=":gneJ38_1" function="internal">
        <lane id=":gneJ38_1_0" index="0" speed="13.89" length="13.12" shape="768.51,48.35 771.91,48.69 774.87,49.55 777.79,50.71 781.04,51.94"/>
    </edge>
    <edge id=":gneJ39_0" function="internal">
        <lane id=":gneJ39_0_0" index="0" speed="13.89" length="13.12" shape="767.97,58.35 771.37,58.01 774.34,57.15 777.25,55.99 780.51,54.76"/>
    </edge>
    <edge id=":gneJ39_1" function="internal">
        <lane id=":gneJ39_1_0" index="0" speed="13.89" length="13.12" shape="767.97,58.35 781.09,58.35"/>
    </edge>
    <edge id=":gneJ4_0" function="internal">
        <lane id=":gneJ4_0_0" index="0" speed="13.89" length="0.10" shape="71.65,-100.00 71.65,-100.00"/>
    </edge>
    <edge id=":gneJ40_0" function="internal">
        <lane id=":gneJ40_0_0" index="0" speed="13.89" length="13.12" shape="767.97,68.35 771.37,68.01 774.34,67.15 777.25,65.99 780.51,64.76"/>
    </edge>
    <edge id=":gneJ40_1" function="internal">
        <lane id=":gneJ40_1_0" index="0" speed="13.89" length="13.12" shape="767.97,68.35 781.09,68.35"/>
    </edge>
    <edge id=":gneJ44_0" function="internal">
        <lane id=":gneJ44_0_0" index="0" speed="13.89" length="13.12" shape="-588.51,101.65 -601.63,101.65"/>
    </edge>
    <edge id=":gneJ44_1" function="internal">
        <lane id=":gneJ44_1_0" index="0" speed="13.89" length="13.12" shape="-588.51,101.65 -591.91,101.31 -594.87,100.45 -597.79,99.29 -601.04,98.06"/>
    </edge>
    <edge id=":gneJ46_0" function="internal">
        <lane id=":gneJ46_0_0" index="0" speed="13.89" length="12.62" shape="-588.51,91.65 -591.83,91.99 -594.60,92.85 -597.34,94.01 -600.51,95.24"/>
    </edge>
    <edge id=":gneJ46_1" function="internal">
        <lane id=":gneJ46_1_0" index="0" speed="13.89" length="13.12" shape="-588.51,91.65 -601.63,91.65"/>
    </edge>
    <edge id=":gneJ46_2" function="internal">
        <lane id=":gneJ46_2_0" index="0" speed="13.89" length="13.12" shape="-588.51,91.65 -591.91,91.31 -594.87,90.45 -597.79,89.29 -601.04,88.06"/>
    </edge>
    <edge id=":gneJ47_0" function="internal">
        <lane id=":gneJ47_0_0" index="0" speed="13.89" length="13.12" shape="-587.97,81.65 -591.37,81.99 -594.34,82.85 -597.25,84.01 -600.51,85.24"/>
    </edge>
    <edge id=":gneJ47_1" function="internal">
        <lane id=":gneJ47_1_0" index="0" speed="13.89" length="13.12" shape="-587.97,81.65 -601.09,81.65"/>
    </edge>
    <edge id=":gneJ5_0" function="internal">
        <lane id=":gneJ5_0_0" index="0" speed="13.89" length="0.10" shape="71.65,250.00 71.65,250.00"/>
    </edge>
    <edge id=":gneJ52_0" function="internal">
        <lane id=":gneJ52_0_0" index="0" speed="13.89" length="13.12" shape="-202.03,68.35 -198.63,68.01 -195.66,67.15 -192.75,65.99 -189.49,64.76"/>
    </edge>
    <edge id=":gneJ52_1" function="internal">
        <lane id=":gneJ52_1_0" index="0" speed="13.89" length="13.12" shape="-202.03,68.35 -188.91,68.35"/>
    </edge>
    <edge id=":gneJ54_0" function="internal">
        <lane id=":gneJ54_0_0" index="0" speed="13.89" length="12.62" shape="-201.49,58.35 -198.17,58.01 -195.40,57.15 -192.66,55.99 -189.49,54.76"/>
    </edge>
    <edge id=":gneJ54_1" function="internal">
        <lane id=":gneJ54_1_0" index="0" speed="13.89" length="13.12" shape="-201.49,58.35 -188.37,58.35"/>
    </edge>
    <edge id=":gneJ54_2" function="internal">
        <lane id=":gneJ54_2_0" index="0" speed="13.89" length="13.12" shape="-201.49,58.35 -198.09,58.69 -195.13,59.55 -192.21,60.71 -188.96,61.94"/>
    </edge>
    <edge id=":gneJ56_0" function="internal">
        <lane id=":gneJ56_0_0" index="0" speed="13.89" length="13.12" shape="-201.49,48.35 -188.37,48.35"/>
    </edge>
    <edge id=":gneJ56_1" function="internal">
        <lane id=":gneJ56_1_0" index="0" speed="13.89" length="13.12" shape="-201.49,48.35 -198.09,48.69 -195.13,49.55 -192.21,50.71 -188.96,51.94"/>
    </edge>
    <edge id=":gneJ58_0" function="internal">
        <lane id=":gneJ58_0_0" index="0" speed="13.89" length="13.12" shape="312.03,81.65 308.63,81.99 305.66,82.85 302.75,84.01 299.49,85.24"/>
    </edge>
    <edge id=":gneJ58_1" function="internal">
        <lane id=":gneJ58_1_0" index="0" speed="13.89" length="13.12" shape="312.03,81.65 298.91,81.65"/>
    </edge>
    <edge id=":gneJ6_0" function="internal">
        <lane id=":gneJ6_0_0" index="0" speed="13.89" length="0.10" shape="81.65,-100.00 81.65,-100.00"/>
    </edge>
    <edge id=":gneJ60_0" function="internal">
        <lane id=":gneJ60_0_0" index="0" speed="13.89" length="12.62" shape="311.49,91.65 308.17,91.99 305.40,92.85 302.66,94.01 299.49,95.24"/>
    </edge>
    <edge id=":gneJ60_1" function="internal">
        <lane id=":gneJ60_1_0" index="0" speed="13.89" length="13.12" shape="311.49,91.65 298.37,91.65"/>
    </edge>
    <edge id=":gneJ60_2" function="internal">
        <lane id=":gneJ60_2_0" index="0" speed="13.89" length="13.12" shape="311.49,91.65 308.09,91.31 305.13,90.45 302.21,89.29 298.96,88.06"/>
    </edge>
    <edge id=":gneJ62_0" function="internal">
        <lane id=":gneJ62_0_0" index="0" speed="13.89" length="13.12" shape="311.49,101.65 298.37,101.65"/>
    </edge>
    <edge id=":gneJ62_1" function="internal">
        <lane id=":gneJ62_1_0" index="0" speed="13.89" length="13.12" shape="311.49,101.65 308.09,101.31 305.13,100.45 302.21,99.29 298.96,98.06"/>
    </edge>
    <edge id=":gneJ63_0" function="internal">
        <lane id=":gneJ63_0_0" index="0" speed="13.89" length="13.12" shape="28.35,-538.51 28.35,-551.63"/>
    </edge>
    <edge id=":gneJ63_1" function="internal">
        <lane id=":gneJ63_1_0" index="0" speed="13.89" length="13.12" shape="28.35,-538.51 28.69,-541.91 29.55,-544.87 30.71,-547.79 31.94,-551.04"/>
    </edge>
    <edge id=":gneJ64_0" function="internal">
        <lane id=":gneJ64_0_0" index="0" speed="13.89" length="13.12" shape="38.35,-537.97 38.01,-541.37 37.15,-544.34 35.99,-547.25 34.76,-550.51"/>
    </edge>
    <edge id=":gneJ64_1" function="internal">
        <lane id=":gneJ64_1_0" index="0" speed="13.89" length="13.65" shape="38.35,-537.97 38.35,-551.63"/>
    </edge>
    <edge id=":gneJ64_2" function="internal">
        <lane id=":gneJ64_2_0" index="0" speed="13.89" length="13.63" shape="38.35,-537.97 38.69,-541.46 39.55,-544.60 40.71,-547.70 41.94,-551.04"/>
    </edge>
    <edge id=":gneJ65_0" function="internal">
        <lane id=":gneJ65_0_0" index="0" speed="13.89" length="13.12" shape="48.35,-537.97 48.01,-541.37 47.15,-544.34 45.99,-547.25 44.76,-550.51"/>
    </edge>
    <edge id=":gneJ65_1" function="internal">
        <lane id=":gneJ65_1_0" index="0" speed="13.89" length="13.12" shape="48.35,-537.97 48.35,-551.09"/>
    </edge>
    <edge id=":gneJ67_0" function="internal">
        <lane id=":gneJ67_0_0" index="0" speed="13.89" length="13.12" shape="61.65,-182.03 61.99,-178.63 62.85,-175.66 64.01,-172.75 65.24,-169.49"/>
    </edge>
    <edge id=":gneJ67_1" function="internal">
        <lane id=":gneJ67_1_0" index="0" speed="13.89" length="13.12" shape="61.65,-182.03 61.65,-168.91"/>
    </edge>
    <edge id=":gneJ69_0" function="internal">
        <lane id=":gneJ69_0_0" index="0" speed="13.89" length="12.62" shape="71.65,-181.49 71.99,-178.17 72.85,-175.40 74.01,-172.66 75.24,-169.49"/>
    </edge>
    <edge id=":gneJ69_1" function="internal">
        <lane id=":gneJ69_1_0" index="0" speed="13.89" length="13.12" shape="71.65,-181.49 71.65,-168.37"/>
    </edge>
    <edge id=":gneJ69_2" function="internal">
        <lane id=":gneJ69_2_0" index="0" speed="13.89" length="13.12" shape="71.65,-181.49 71.31,-178.09 70.45,-175.13 69.29,-172.21 68.06,-168.96"/>
    </edge>
    <edge id=":gneJ7_0" function="internal">
        <lane id=":gneJ7_0_0" index="0" speed="13.89" length="0.10" shape="81.65,250.00 81.65,250.00"/>
    </edge>
    <edge id=":gneJ71_0" function="internal">
        <lane id=":gneJ71_0_0" index="0" speed="13.89" length="13.12" shape="81.65,-181.49 81.65,-168.37"/>
    </edge>
    <edge id=":gneJ71_1" function="internal">
        <lane id=":gneJ71_1_0" index="0" speed="13.89" length="13.12" shape="81.65,-181.49 81.31,-178.09 80.45,-175.13 79.29,-172.21 78.06,-168.96"/>
    </edge>
    <edge id=":gneJ73_0" function="internal">
        <lane id=":gneJ73_0_0" index="0" speed="13.89" length="13.12" shape="81.65,748.51 81.65,761.63"/>
    </edge>
    <edge id=":gneJ73_1" function="internal">
        <lane id=":gneJ73_1_0" index="0" speed="13.89" length="13.12" shape="81.65,748.51 81.31,751.91 80.45,754.87 79.29,757.79 78.06,761.04"/>
    </edge>
    <edge id=":gneJ74_0" function="internal">
        <lane id=":gneJ74_0_0" index="0" speed="13.89" length="12.62" shape="71.65,748.51 71.99,751.83 72.85,754.60 74.01,757.34 75.24,760.51"/>
    </edge>
    <edge id=":gneJ74_1" function="internal">
        <lane id=":gneJ74_1_0" index="0" speed="13.89" length="13.12" shape="71.65,748.51 71.65,761.63"/>
    </edge>
    <edge id=":gneJ74_2" function="internal">
        <lane id=":gneJ74_2_0" index="0" speed="13.89" length="13.12" shape="71.65,748.51 71.31,751.91 70.45,754.87 69.29,757.79 68.06,761.04"/>
    </edge>
    <edge id=":gneJ75_0" function="internal">
        <lane id=":gneJ75_0_0" index="0" speed="13.89" length="13.12" shape="61.65,747.97 61.99,751.37 62.85,754.34 64.01,757.25 65.24,760.51"/>
    </edge>
    <edge id=":gneJ75_1" function="internal">
        <lane id=":gneJ75_1_0" index="0" speed="13.89" length="13.12" shape="61.65,747.97 61.65,761.09"/>
    </edge>
    <edge id=":gneJ77_0" function="internal">
        <lane id=":gneJ77_0_0" index="0" speed="13.89" length="13.12" shape="48.35,332.03 48.01,328.63 47.15,325.66 45.99,322.75 44.76,319.49"/>
    </edge>
    <edge id=":gneJ77_1" function="internal">
        <lane id=":gneJ77_1_0" index="0" speed="13.89" length="13.12" shape="48.35,332.03 48.35,318.91"/>
    </edge>
    <edge id=":gneJ79_0" function="internal">
        <lane id=":gneJ79_0_0" index="0" speed="13.89" length="13.12" shape="38.35,332.03 38.01,328.63 37.15,325.66 35.99,322.75 34.76,319.49"/>
    </edge>
    <edge id=":gneJ79_1" function="internal">
        <lane id=":gneJ79_1_0" index="0" speed="13.89" length="13.65" shape="38.35,332.03 38.35,318.37"/>
    </edge>
    <edge id=":gneJ79_2" function="internal">
        <lane id=":gneJ79_2_0" index="0" speed="13.89" length="13.63" shape="38.35,332.03 38.69,328.54 39.55,325.40 40.71,322.30 41.94,318.96"/>
    </edge>
    <edge id=":gneJ8_0" function="internal">
        <lane id=":gneJ8_0_0" index="0" speed="13.89" length="0.10" shape="48.35,250.00 48.35,250.00"/>
    </edge>
    <edge id=":gneJ81_0" function="internal">
        <lane id=":gneJ81_0_0" index="0" speed="13.89" length="13.12" shape="28.35,331.49 28.35,318.37"/>
    </edge>
    <edge id=":gneJ81_1" function="internal">
        <lane id=":gneJ81_1_0" index="0" speed="13.89" length="13.12" shape="28.35,331.49 28.69,328.09 29.55,325.13 30.71,322.21 31.94,318.96"/>
    </edge>

    <edge id="gneE100" from="gneJ60" to="gneJ104" priority="1">
        <lane id="gneE100_0" index="0" speed="13.89" length="8.90" shape="299.49,95.24 291.04,98.06"/>
    </edge>
    <edge id="gneE101" from="gneJ60" to="gneJ102" priority="1">
        <lane id="gneE101_0" index="0" speed="13.89" length="8.90" shape="298.96,88.06 290.51,85.24"/>
    </edge>