<?xml version="1.0" encoding="UTF-8"?>

<!-- generated on 6/25/2018 5:28:51 PM by Netedit Version 0.32.0
<?xml version="1.0" encoding="UTF-8"?>

<configuration xmlns:xsi="http://www.w3.org/2001/XMLSchema-instance" xsi:noNamespaceSchemaLocation="http://sumo.dlr.de/xsd/netconvertConfiguration.xsd">

    <input>
        <sumo-net-file value="C:\Users\abeld\Downloads\Intersection\Diamond\Diamond.net.xml"/>
    </input>

    <output>
        <output-file value="C:\Users\abeld\Downloads\Intersection\Diamond\Diamond.net.xml"/>
    </output>

    <processing>
        <no-turnarounds value="true"/>
        <offset.disable-normalization value="true"/>
        <lefthand value="false"/>
        <junctions.corner-detail value="0"/>
        <rectangular-lane-cut value="false"/>
        <walkingareas value="false"/>
    </processing>

</configuration>
-->

<net version="0.27" xmlns:xsi="http://www.w3.org/2001/XMLSchema-instance" xsi:noNamespaceSchemaLocation="http://sumo.dlr.de/xsd/net_file.xsd">

    <location netOffset="0.00,0.00" convBoundary="-780.00,-770.00,900.00,920.00" origBoundary="-10000000000.00,-10000000000.00,10000000000.00,10000000000.00" projParameter="!"/>

    <edge id=":,j,hmnxgx_0" function="internal">
        <lane id=":,j,hmnxgx_0_0" index="0" speed="13.89" length="25.62" shape="-416.34,95.05 -421.70,94.22 -429.02,93.08 -436.35,92.08 -441.73,91.65"/>
    </edge>
    <edge id=":,j,hmnxgx_1" function="internal">
        <lane id=":,j,hmnxgx_1_0" index="0" speed="13.89" length="25.86" shape="-415.87,91.65 -441.73,91.65"/>
    </edge>
    <edge id=":,j,hmnxgx_2" function="internal">
        <lane id=":,j,hmnxgx_2_0" index="0" speed="13.89" length="25.85" shape="-416.11,88.25 -421.50,89.08 -428.90,90.22 -436.31,91.22 -441.73,91.65"/>
    </edge>
    <edge id=":argsbbsdg_0" function="internal">
        <lane id=":argsbbsdg_0_0" index="0" speed="13.89" length="25.62" shape="-533.66,54.95 -528.30,55.78 -520.98,56.92 -513.65,57.92 -508.27,58.35"/>
    </edge>
    <edge id=":argsbbsdg_1" function="internal">
        <lane id=":argsbbsdg_1_0" index="0" speed="13.89" length="25.86" shape="-534.13,58.35 -508.27,58.35"/>
    </edge>
    <edge id=":argsbbsdg_2" function="internal">
        <lane id=":argsbbsdg_2_0" index="0" speed="13.89" length="25.85" shape="-533.89,61.75 -528.50,60.92 -521.10,59.78 -513.69,58.78 -508.27,58.35"/>
    </edge>
    <edge id=":asdfadf_0" function="internal">
        <lane id=":asdfadf_0_0" index="0" speed="13.89" length="25.62" shape="-533.66,64.95 -528.30,65.78 -520.98,66.92 -513.65,67.92 -508.27,68.35"/>
    </edge>
    <edge id=":asdfadf_1" function="internal">
        <lane id=":asdfadf_1_0" index="0" speed="13.89" length="25.63" shape="-533.90,68.35 -508.27,68.35"/>
    </edge>
    <edge id=":asdfafnsn_0" function="internal">
        <lane id=":asdfafnsn_0_0" index="0" speed="13.89" length="25.62" shape="-416.34,85.05 -421.70,84.22 -429.02,83.08 -436.35,82.08 -441.73,81.65"/>
    </edge>
    <edge id=":asdfafnsn_1" function="internal">
        <lane id=":asdfafnsn_1_0" index="0" speed="13.89" length="25.63" shape="-416.10,81.65 -441.73,81.65"/>
    </edge>
    <edge id=":bngsfgnng_0" function="internal">
        <lane id=":bngsfgnng_0_0" index="0" speed="13.89" length="25.62" shape="653.66,95.05 648.30,94.22 640.98,93.08 633.65,92.08 628.27,91.65"/>
    </edge>
    <edge id=":bngsfgnng_1" function="internal">
        <lane id=":bngsfgnng_1_0" index="0" speed="13.89" length="25.86" shape="654.13,91.65 628.27,91.65"/>
    </edge>
    <edge id=":bngsfgnng_2" function="internal">
        <lane id=":bngsfgnng_2_0" index="0" speed="13.89" length="25.85" shape="653.89,88.25 648.50,89.08 641.10,90.22 633.69,91.22 628.27,91.65"/>
    </edge>
    <edge id=":dghdhd_0" function="internal">
        <lane id=":dghdhd_0_0" index="0" speed="13.89" length="25.63" shape="-415.87,101.65 -441.50,101.65"/>
    </edge>
    <edge id=":dghdhd_1" function="internal">
        <lane id=":dghdhd_1_0" index="0" speed="13.89" length="25.62" shape="-416.11,98.25 -421.46,99.08 -428.78,100.22 -436.12,101.22 -441.50,101.65"/>
    </edge>
    <edge id=":dsghsdgsdfg_0" function="internal">
        <lane id=":dsghsdgsdfg_0_0" index="0" speed="13.89" length="25.63" shape="654.13,101.65 628.50,101.65"/>
    </edge>
    <edge id=":dsghsdgsdfg_1" function="internal">
        <lane id=":dsghsdgsdfg_1_0" index="0" speed="13.89" length="25.62" shape="653.89,98.25 648.54,99.08 641.22,100.22 633.88,101.22 628.50,101.65"/>
    </edge>
    <edge id=":fgsdbxcvb_0" function="internal">
        <lane id=":fgsdbxcvb_0_0" index="0" speed="13.89" length="25.62" shape="75.05,-523.66 74.22,-518.30 73.08,-510.98 72.08,-503.65 71.65,-498.27"/>
    </edge>
    <edge id=":fgsdbxcvb_1" function="internal">
        <lane id=":fgsdbxcvb_1_0" index="0" speed="13.89" length="25.86" shape="71.65,-524.13 71.65,-498.27"/>
    </edge>
    <edge id=":fgsdbxcvb_2" function="internal">
        <lane id=":fgsdbxcvb_2_0" index="0" speed="13.89" length="25.85" shape="68.25,-523.89 69.08,-518.50 70.22,-511.10 71.22,-503.69 71.65,-498.27"/>
    </edge>
    <edge id=":fjfghjhnnvnv_0" function="internal">
        <lane id=":fjfghjhnnvnv_0_0" index="0" speed="13.89" length="25.86" shape="38.35,674.13 38.35,648.27"/>
    </edge>
    <edge id=":fjfghjhnnvnv_1" function="internal">
        <lane id=":fjfghjhnnvnv_1_0" index="0" speed="13.89" length="25.85" shape="41.75,673.89 40.92,668.50 39.78,661.10 38.78,653.69 38.35,648.27"/>
    </edge>
    <edge id=":fjfghjhnnvnv_2" function="internal">
        <lane id=":fjfghjhnnvnv_2_0" index="0" speed="13.89" length="25.62" shape="34.95,673.66 35.78,668.30 36.92,660.98 37.92,653.65 38.35,648.27"/>
    </edge>
    <edge id=":fjhfhjfhj_0" function="internal">
        <lane id=":fjhfhjfhj_0_0" index="0" speed="13.89" length="25.63" shape="48.35,673.90 48.35,648.27"/>
    </edge>
    <edge id=":fjhfhjfhj_1" function="internal">
        <lane id=":fjhfhjfhj_1_0" index="0" speed="13.89" length="25.62" shape="44.95,673.66 45.78,668.30 46.92,660.98 47.92,653.65 48.35,648.27"/>
    </edge>
    <edge id=":gdhhjhfdhgd_0" function="internal">
        <lane id=":gdhhjhfdhgd_0_0" index="0" speed="13.89" length="25.63" shape="525.87,48.35 551.50,48.35"/>
    </edge>
    <edge id=":gdhhjhfdhgd_1" function="internal">
        <lane id=":gdhhjhfdhgd_1_0" index="0" speed="13.89" length="25.62" shape="526.11,51.75 531.46,50.92 538.78,49.78 546.12,48.78 551.50,48.35"/>
    </edge>
    <edge id=":gjkgjjtytyt_0" function="internal">
        <lane id=":gjkgjjtytyt_0_0" index="0" speed="13.89" length="25.62" shape="65.05,546.34 64.22,551.70 63.08,559.02 62.08,566.35 61.65,571.73"/>
    </edge>
    <edge id=":gjkgjjtytyt_1" function="internal">
        <lane id=":gjkgjjtytyt_1_0" index="0" speed="13.89" length="25.63" shape="61.65,546.10 61.65,571.73"/>
    </edge>
    <edge id=":gjkgjkgjkgjkgkjhk_0" function="internal">
        <lane id=":gjkgjkgjkgjkgkjhk_0_0" index="0" speed="13.89" length="25.62" shape="75.05,546.34 74.22,551.70 73.08,559.02 72.08,566.35 71.65,571.73"/>
    </edge>
    <edge id=":gjkgjkgjkgjkgkjhk_1" function="internal">
        <lane id=":gjkgjkgjkgjkgkjhk_1_0" index="0" speed="13.89" length="25.86" shape="71.65,545.87 71.65,571.73"/>
    </edge>
    <edge id=":gjkgjkgjkgjkgkjhk_2" function="internal">
        <lane id=":gjkgjkgjkgjkgkjhk_2_0" index="0" speed="13.89" length="25.85" shape="68.25,546.11 69.08,551.50 70.22,558.90 71.22,566.31 71.65,571.73"/>
    </edge>
    <edge id=":gneJ10_0" function="internal">
        <lane id=":gneJ10_0_0" index="0" speed="13.89" length="0.10" shape="38.35,250.00 38.35,250.00"/>
    </edge>
    <edge id=":gneJ102_0" function="internal">
        <lane id=":gneJ102_0_0" index="0" speed="13.89" length="25.62" shape="503.66,85.05 498.30,84.22 490.98,83.08 483.65,82.08 478.27,81.65"/>
    </edge>
    <edge id=":gneJ102_1" function="internal">
        <lane id=":gneJ102_1_0" index="0" speed="13.89" length="25.63" shape="503.90,81.65 478.27,81.65"/>
    </edge>
    <edge id=":gneJ103_0" function="internal">
        <lane id=":gneJ103_0_0" index="0" speed="13.89" length="25.62" shape="503.66,95.05 498.30,94.22 490.98,93.08 483.65,92.08 478.27,91.65"/>
    </edge>
    <edge id=":gneJ103_1" function="internal">
        <lane id=":gneJ103_1_0" index="0" speed="13.89" length="25.86" shape="504.13,91.65 478.27,91.65"/>
    </edge>
    <edge id=":gneJ103_2" function="internal">
        <lane id=":gneJ103_2_0" index="0" speed="13.89" length="25.85" shape="503.89,88.25 498.50,89.08 491.10,90.22 483.69,91.22 478.27,91.65"/>
    </edge>
    <edge id=":gneJ104_0" function="internal">
        <lane id=":gneJ104_0_0" index="0" speed="13.89" length="25.63" shape="504.13,101.65 478.50,101.65"/>
    </edge>
    <edge id=":gneJ104_1" function="internal">
        <lane id=":gneJ104_1_0" index="0" speed="13.89" length="25.62" shape="503.89,98.25 498.54,99.08 491.22,100.22 483.88,101.22 478.50,101.65"/>
    </edge>
    <edge id=":gneJ11_0" function="internal">
        <lane id=":gneJ11_0_0" index="0" speed="13.89" length="0.10" shape="38.35,-100.00 38.35,-100.00"/>
    </edge>
    <edge id=":gneJ12_0" function="internal">
        <lane id=":gneJ12_0_0" index="0" speed="13.89" length="0.10" shape="28.35,250.00 28.35,250.00"/>
    </edge>
    <edge id=":gneJ13_0" function="internal">
        <lane id=":gneJ13_0_0" index="0" speed="13.89" length="0.10" shape="28.35,-100.00 28.35,-100.00"/>
    </edge>
    <edge id=":gneJ134_0" function="internal">
        <lane id=":gneJ134_0_0" index="0" speed="13.89" length="25.63" shape="-394.13,48.35 -368.50,48.35"/>
    </edge>
    <edge id=":gneJ134_1" function="internal">
        <lane id=":gneJ134_1_0" index="0" speed="13.89" length="25.62" shape="-393.89,51.75 -388.54,50.92 -381.22,49.78 -373.88,48.78 -368.50,48.35"/>
    </edge>
    <edge id=":gneJ135_0" function="internal">
        <lane id=":gneJ135_0_0" index="0" speed="13.89" length="25.62" shape="-393.66,54.95 -388.30,55.78 -380.98,56.92 -373.65,57.92 -368.27,58.35"/>
    </edge>
    <edge id=":gneJ135_1" function="internal">
        <lane id=":gneJ135_1_0" index="0" speed="13.89" length="25.86" shape="-394.13,58.35 -368.27,58.35"/>
    </edge>
    <edge id=":gneJ135_2" function="internal">
        <lane id=":gneJ135_2_0" index="0" speed="13.89" length="25.85" shape="-393.89,61.75 -388.50,60.92 -381.10,59.78 -373.69,58.78 -368.27,58.35"/>
    </edge>
    <edge id=":gneJ136_0" function="internal">
        <lane id=":gneJ136_0_0" index="0" speed="13.89" length="25.62" shape="-393.66,64.95 -388.30,65.78 -380.98,66.92 -373.65,67.92 -368.27,68.35"/>
    </edge>
    <edge id=":gneJ136_1" function="internal">
        <lane id=":gneJ136_1_0" index="0" speed="13.89" length="25.63" shape="-393.90,68.35 -368.27,68.35"/>
    </edge>
    <edge id=":gneJ14_0" function="internal">
        <lane id=":gneJ14_0_0" index="0" speed="13.89" length="10.76" shape="-122.20,48.35 -119.18,48.07 -117.07,47.29 -115.04,46.12 -112.27,44.67"/>
    </edge>
    <edge id=":gneJ14_1" function="internal">
        <lane id=":gneJ14_1_0" index="0" speed="13.89" length="10.73" shape="-122.20,48.35 -111.47,48.35"/>
    </edge>
    <edge id=":gneJ141_0" function="internal">
        <lane id=":gneJ141_0_0" index="0" speed="13.89" length="25.63" shape="48.35,523.90 48.35,498.27"/>
    </edge>
    <edge id=":gneJ141_1" function="internal">
        <lane id=":gneJ141_1_0" index="0" speed="13.89" length="25.62" shape="44.95,523.66 45.78,518.30 46.92,510.98 47.92,503.65 48.35,498.27"/>
    </edge>
    <edge id=":gneJ142_0" function="internal">
        <lane id=":gneJ142_0_0" index="0" speed="13.89" length="25.86" shape="38.35,524.13 38.35,498.27"/>
    </edge>
    <edge id=":gneJ142_1" function="internal">
        <lane id=":gneJ142_1_0" index="0" speed="13.89" length="25.85" shape="41.75,523.89 40.92,518.50 39.78,511.10 38.78,503.69 38.35,498.27"/>
    </edge>
    <edge id=":gneJ142_2" function="internal">
        <lane id=":gneJ142_2_0" index="0" speed="13.89" length="25.62" shape="34.95,523.66 35.78,518.30 36.92,510.98 37.92,503.65 38.35,498.27"/>
    </edge>
    <edge id=":gneJ143_0" function="internal">
        <lane id=":gneJ143_0_0" index="0" speed="13.89" length="25.63" shape="28.35,524.13 28.35,498.50"/>
    </edge>
    <edge id=":gneJ143_1" function="internal">
        <lane id=":gneJ143_1_0" index="0" speed="13.89" length="25.62" shape="31.75,523.89 30.92,518.54 29.78,511.22 28.78,503.88 28.35,498.50"/>
    </edge>
    <edge id=":gneJ145_0" function="internal">
        <lane id=":gneJ145_0_0" index="0" speed="13.89" length="25.62" shape="81.65,-374.13 81.65,-348.51"/>
    </edge>
    <edge id=":gneJ145_1" function="internal">
        <lane id=":gneJ145_1_0" index="0" speed="13.89" length="26.76" shape="78.09,-375.02 78.95,-369.49 80.14,-361.78 81.19,-354.06 81.65,-348.51"/>
    </edge>
    <edge id=":gneJ145_2" function="internal">
        <lane id=":gneJ145_2_0" index="0" speed="13.89" length="26.74" shape="74.77,-374.31 76.42,-368.95 78.73,-361.48 80.77,-353.97 81.65,-348.51"/>
    </edge>
    <edge id=":gneJ146_0" function="internal">
        <lane id=":gneJ146_0_0" index="0" speed="13.89" length="25.62" shape="75.05,-373.66 74.22,-368.30 73.08,-360.98 72.08,-353.65 71.65,-348.27"/>
    </edge>
    <edge id=":gneJ146_1" function="internal">
        <lane id=":gneJ146_1_0" index="0" speed="13.89" length="25.86" shape="71.65,-374.13 71.65,-348.27"/>
    </edge>
    <edge id=":gneJ146_2" function="internal">
        <lane id=":gneJ146_2_0" index="0" speed="13.89" length="25.85" shape="68.25,-373.89 69.08,-368.50 70.22,-361.10 71.22,-353.69 71.65,-348.27"/>
    </edge>
    <edge id=":gneJ147_0" function="internal">
        <lane id=":gneJ147_0_0" index="0" speed="13.89" length="26.51" shape="68.46,-373.62 66.82,-368.30 64.54,-360.90 62.52,-353.47 61.65,-348.04"/>
    </edge>
    <edge id=":gneJ147_1" function="internal">
        <lane id=":gneJ147_1_0" index="0" speed="13.89" length="26.52" shape="65.14,-374.33 64.30,-368.84 63.13,-361.21 62.10,-353.56 61.65,-348.04"/>
    </edge>
    <edge id=":gneJ147_2" function="internal">
        <lane id=":gneJ147_2_0" index="0" speed="13.89" length="25.85" shape="61.65,-373.90 61.65,-348.04"/>
    </edge>
    <edge id=":gneJ15_0" function="internal">
        <lane id=":gneJ15_0_0" index="0" speed="13.89" length="10.76" shape="222.27,44.67 225.04,46.12 227.07,47.29 229.18,48.07 232.20,48.35"/>
    </edge>
    <edge id=":gneJ15_1" function="internal">
        <lane id=":gneJ15_1_0" index="0" speed="13.89" length="10.73" shape="221.47,48.35 232.20,48.35"/>
    </edge>
    <edge id=":gneJ151_0" function="internal">
        <lane id=":gneJ151_0_0" index="0" speed="13.89" length="25.62" shape="-581.73,68.35 -576.35,67.92 -569.02,66.92 -561.70,65.78 -556.34,64.95"/>
    </edge>
    <edge id=":gneJ151_1" function="internal">
        <lane id=":gneJ151_1_0" index="0" speed="13.89" length="25.63" shape="-581.73,68.35 -556.10,68.35"/>
    </edge>
    <edge id=":gneJ152_0" function="internal">
        <lane id=":gneJ152_0_0" index="0" speed="13.89" length="25.39" shape="-581.50,58.35 -576.15,57.92 -568.90,56.92 -561.66,55.78 -556.34,54.95"/>
    </edge>
    <edge id=":gneJ152_1" function="internal">
        <lane id=":gneJ152_1_0" index="0" speed="13.89" length="25.63" shape="-581.50,58.35 -555.87,58.35"/>
    </edge>
    <edge id=":gneJ152_2" function="internal">
        <lane id=":gneJ152_2_0" index="0" speed="13.89" length="25.62" shape="-581.50,58.35 -576.12,58.78 -568.78,59.78 -561.46,60.92 -556.11,61.75"/>
    </edge>
    <edge id=":gneJ153_0" function="internal">
        <lane id=":gneJ153_0_0" index="0" speed="13.89" length="25.63" shape="-581.50,48.35 -555.87,48.35"/>
    </edge>
    <edge id=":gneJ153_1" function="internal">
        <lane id=":gneJ153_1_0" index="0" speed="13.89" length="25.62" shape="-581.50,48.35 -576.12,48.78 -568.78,49.78 -561.46,50.92 -556.11,51.75"/>
    </edge>
    <edge id=":gneJ154_0" function="internal">
        <lane id=":gneJ154_0_0" index="0" speed="13.89" length="25.62" shape="-683.66,64.95 -678.30,65.78 -670.98,66.92 -663.65,67.92 -658.27,68.35"/>
    </edge>
    <edge id=":gneJ154_1" function="internal">
        <lane id=":gneJ154_1_0" index="0" speed="13.89" length="25.63" shape="-683.90,68.35 -658.27,68.35"/>
    </edge>
    <edge id=":gneJ155_0" function="internal">
        <lane id=":gneJ155_0_0" index="0" speed="13.89" length="25.62" shape="-683.66,54.95 -678.30,55.78 -670.98,56.92 -663.65,57.92 -658.27,58.35"/>
    </edge>
    <edge id=":gneJ155_1" function="internal">
        <lane id=":gneJ155_1_0" index="0" speed="13.89" length="25.86" shape="-684.13,58.35 -658.27,58.35"/>
    </edge>
    <edge id=":gneJ155_2" function="internal">
        <lane id=":gneJ155_2_0" index="0" speed="13.89" length="25.85" shape="-683.89,61.75 -678.50,60.92 -671.10,59.78 -663.69,58.78 -658.27,58.35"/>
    </edge>
    <edge id=":gneJ156_0" function="internal">
        <lane id=":gneJ156_0_0" index="0" speed="13.89" length="25.63" shape="-684.13,48.35 -658.50,48.35"/>
    </edge>
    <edge id=":gneJ156_1" function="internal">
        <lane id=":gneJ156_1_0" index="0" speed="13.89" length="25.62" shape="-683.89,51.75 -678.54,50.92 -671.22,49.78 -663.88,48.78 -658.50,48.35"/>
    </edge>
    <edge id=":gneJ16_0" function="internal">
        <lane id=":gneJ16_0_0" index="0" speed="13.89" length="0.10" shape="-120.00,58.35 -120.00,58.35"/>
    </edge>
    <edge id=":gneJ165_0" function="internal">
        <lane id=":gneJ165_0_0" index="0" speed="13.89" length="25.62" shape="-731.73,68.35 -726.35,67.92 -719.02,66.92 -711.70,65.78 -706.34,64.95"/>
    </edge>
    <edge id=":gneJ165_1" function="internal">
        <lane id=":gneJ165_1_0" index="0" speed="13.89" length="25.63" shape="-731.73,68.35 -706.10,68.35"/>
    </edge>
    <edge id=":gneJ17_0" function="internal">
        <lane id=":gneJ17_0_0" index="0" speed="13.89" length="0.10" shape="230.00,58.35 230.00,58.35"/>
    </edge>
    <edge id=":gneJ171_0" function="internal">
        <lane id=":gneJ171_0_0" index="0" speed="13.89" length="25.39" shape="-731.50,58.35 -726.15,57.92 -718.90,56.92 -711.66,55.78 -706.34,54.95"/>
    </edge>
    <edge id=":gneJ171_1" function="internal">
        <lane id=":gneJ171_1_0" index="0" speed="13.89" length="25.63" shape="-731.50,58.35 -705.87,58.35"/>
    </edge>
    <edge id=":gneJ171_2" function="internal">
        <lane id=":gneJ171_2_0" index="0" speed="13.89" length="25.62" shape="-731.50,58.35 -726.12,58.78 -718.78,59.78 -711.46,60.92 -706.11,61.75"/>
    </edge>
    <edge id=":gneJ175_0" function="internal">
        <lane id=":gneJ175_0_0" index="0" speed="13.89" length="25.63" shape="-731.50,48.35 -705.87,48.35"/>
    </edge>
    <edge id=":gneJ175_1" function="internal">
        <lane id=":gneJ175_1_0" index="0" speed="13.89" length="25.62" shape="-731.50,48.35 -726.12,48.78 -718.78,49.78 -711.46,50.92 -706.11,51.75"/>
    </edge>
    <edge id=":gneJ18_0" function="internal">
        <lane id=":gneJ18_0_0" index="0" speed="13.89" length="0.10" shape="-120.00,68.35 -120.00,68.35"/>
    </edge>
    <edge id=":gneJ183_0" function="internal">
        <lane id=":gneJ183_0_0" index="0" speed="13.89" length="25.62" shape="61.65,-571.73 62.08,-566.35 63.08,-559.02 64.22,-551.70 65.05,-546.34"/>
    </edge>
    <edge id=":gneJ183_1" function="internal">
        <lane id=":gneJ183_1_0" index="0" speed="13.89" length="25.63" shape="61.65,-571.73 61.65,-546.10"/>
    </edge>
    <edge id=":gneJ184_0" function="internal">
        <lane id=":gneJ184_0_0" index="0" speed="13.89" length="25.39" shape="71.65,-571.50 72.08,-566.15 73.08,-558.90 74.22,-551.66 75.05,-546.34"/>
    </edge>
    <edge id=":gneJ184_1" function="internal">
        <lane id=":gneJ184_1_0" index="0" speed="13.89" length="25.63" shape="71.65,-571.50 71.65,-545.87"/>
    </edge>
    <edge id=":gneJ184_2" function="internal">
        <lane id=":gneJ184_2_0" index="0" speed="13.89" length="25.62" shape="71.65,-571.50 71.22,-566.12 70.22,-558.78 69.08,-551.46 68.25,-546.11"/>
    </edge>
    <edge id=":gneJ185_0" function="internal">
        <lane id=":gneJ185_0_0" index="0" speed="13.89" length="25.63" shape="81.65,-571.50 81.65,-545.87"/>
    </edge>
    <edge id=":gneJ185_1" function="internal">
        <lane id=":gneJ185_1_0" index="0" speed="13.89" length="25.62" shape="81.65,-571.50 81.22,-566.12 80.22,-558.78 79.08,-551.46 78.25,-546.11"/>
    </edge>
    <edge id=":gneJ186_0" function="internal">
        <lane id=":gneJ186_0_0" index="0" speed="13.89" length="25.62" shape="65.05,-673.66 64.22,-668.30 63.08,-660.98 62.08,-653.65 61.65,-648.27"/>
    </edge>
    <edge id=":gneJ186_1" function="internal">
        <lane id=":gneJ186_1_0" index="0" speed="13.89" length="25.63" shape="61.65,-673.90 61.65,-648.27"/>
    </edge>
    <edge id=":gneJ187_0" function="internal">
        <lane id=":gneJ187_0_0" index="0" speed="13.89" length="25.62" shape="75.05,-673.66 74.22,-668.30 73.08,-660.98 72.08,-653.65 71.65,-648.27"/>
    </edge>
    <edge id=":gneJ187_1" function="internal">
        <lane id=":gneJ187_1_0" index="0" speed="13.89" length="25.86" shape="71.65,-674.13 71.65,-648.27"/>
    </edge>
    <edge id=":gneJ187_2" function="internal">
        <lane id=":gneJ187_2_0" index="0" speed="13.89" length="25.85" shape="68.25,-673.89 69.08,-668.50 70.22,-661.10 71.22,-653.69 71.65,-648.27"/>
    </edge>
    <edge id=":gneJ189_0" function="internal">
        <lane id=":gneJ189_0_0" index="0" speed="13.89" length="25.62" shape="61.65,-721.73 62.08,-716.35 63.08,-709.02 64.22,-701.70 65.05,-696.34"/>
    </edge>
    <edge id=":gneJ189_1" function="internal">
        <lane id=":gneJ189_1_0" index="0" speed="13.89" length="25.63" shape="61.65,-721.73 61.65,-696.10"/>
    </edge>
    <edge id=":gneJ19_0" function="internal">
        <lane id=":gneJ19_0_0" index="0" speed="13.89" length="0.10" shape="230.00,68.35 230.00,68.35"/>
    </edge>
    <edge id=":gneJ190_0" function="internal">
        <lane id=":gneJ190_0_0" index="0" speed="13.89" length="25.39" shape="71.65,-721.50 72.08,-716.15 73.08,-708.90 74.22,-701.66 75.05,-696.34"/>
    </edge>
    <edge id=":gneJ190_1" function="internal">
        <lane id=":gneJ190_1_0" index="0" speed="13.89" length="25.63" shape="71.65,-721.50 71.65,-695.87"/>
    </edge>
    <edge id=":gneJ190_2" function="internal">
        <lane id=":gneJ190_2_0" index="0" speed="13.89" length="25.62" shape="71.65,-721.50 71.22,-716.12 70.22,-708.78 69.08,-701.46 68.25,-696.11"/>
    </edge>
    <edge id=":gneJ191_0" function="internal">
        <lane id=":gneJ191_0_0" index="0" speed="13.89" length="25.63" shape="81.65,-721.50 81.65,-695.87"/>
    </edge>
    <edge id=":gneJ191_1" function="internal">
        <lane id=":gneJ191_1_0" index="0" speed="13.89" length="25.62" shape="81.65,-721.50 81.22,-716.12 80.22,-708.78 79.08,-701.46 78.25,-696.11"/>
    </edge>
    <edge id=":gneJ194_0" function="internal">
        <lane id=":gneJ194_0_0" index="0" speed="13.89" length="25.63" shape="-508.50,101.65 -534.13,101.65"/>
    </edge>
    <edge id=":gneJ194_1" function="internal">
        <lane id=":gneJ194_1_0" index="0" speed="13.89" length="25.62" shape="-508.50,101.65 -513.88,101.22 -521.22,100.22 -528.54,99.08 -533.89,98.25"/>
    </edge>
    <edge id=":gneJ195_0" function="internal">
        <lane id=":gneJ195_0_0" index="0" speed="13.89" length="25.39" shape="-508.50,91.65 -513.85,92.08 -521.10,93.08 -528.34,94.22 -533.66,95.05"/>
    </edge>
    <edge id=":gneJ195_1" function="internal">
        <lane id=":gneJ195_1_0" index="0" speed="13.89" length="25.63" shape="-508.50,91.65 -534.13,91.65"/>
    </edge>
    <edge id=":gneJ195_2" function="internal">
        <lane id=":gneJ195_2_0" index="0" speed="13.89" length="25.62" shape="-508.50,91.65 -513.88,91.22 -521.22,90.22 -528.54,89.08 -533.89,88.25"/>
    </edge>
    <edge id=":gneJ196_0" function="internal">
        <lane id=":gneJ196_0_0" index="0" speed="13.89" length="25.62" shape="-508.27,81.65 -513.65,82.08 -520.98,83.08 -528.30,84.22 -533.66,85.05"/>
    </edge>
    <edge id=":gneJ196_1" function="internal">
        <lane id=":gneJ196_1_0" index="0" speed="13.89" length="25.63" shape="-508.27,81.65 -533.90,81.65"/>
    </edge>
    <edge id=":gneJ197_0" function="internal">
        <lane id=":gneJ197_0_0" index="0" speed="13.89" length="25.63" shape="-555.87,101.65 -581.50,101.65"/>
    </edge>
    <edge id=":gneJ197_1" function="internal">
        <lane id=":gneJ197_1_0" index="0" speed="13.89" length="25.62" shape="-556.11,98.25 -561.46,99.08 -568.78,100.22 -576.12,101.22 -581.50,101.65"/>
    </edge>
    <edge id=":gneJ198_0" function="internal">
        <lane id=":gneJ198_0_0" index="0" speed="13.89" length="25.62" shape="-556.34,95.05 -561.70,94.22 -569.02,93.08 -576.35,92.08 -581.73,91.65"/>
    </edge>
    <edge id=":gneJ198_1" function="internal">
        <lane id=":gneJ198_1_0" index="0" speed="13.89" length="25.86" shape="-555.87,91.65 -581.73,91.65"/>
    </edge>
    <edge id=":gneJ198_2" function="internal">
        <lane id=":gneJ198_2_0" index="0" speed="13.89" length="25.85" shape="-556.11,88.25 -561.50,89.08 -568.90,90.22 -576.31,91.22 -581.73,91.65"/>
    </edge>
    <edge id=":gneJ199_0" function="internal">
        <lane id=":gneJ199_0_0" index="0" speed="13.89" length="25.62" shape="-556.34,85.05 -561.70,84.22 -569.02,83.08 -576.35,82.08 -581.73,81.65"/>
    </edge>
    <edge id=":gneJ199_1" function="internal">
        <lane id=":gneJ199_1_0" index="0" speed="13.89" length="25.63" shape="-556.10,81.65 -581.73,81.65"/>
    </edge>
    <edge id=":gneJ2_0" function="internal">
        <lane id=":gneJ2_0_0" index="0" speed="13.89" length="0.10" shape="61.65,-100.00 61.65,-100.00"/>
    </edge>
    <edge id=":gneJ20_0" function="internal">
        <lane id=":gneJ20_0_0" index="0" speed="13.89" length="0.10" shape="230.00,81.65 230.00,81.65"/>
    </edge>
    <edge id=":gneJ200_0" function="internal">
        <lane id=":gneJ200_0_0" index="0" speed="13.89" length="25.62" shape="-658.27,81.65 -663.65,82.08 -670.98,83.08 -678.30,84.22 -683.66,85.05"/>
    </edge>
    <edge id=":gneJ200_1" function="internal">
        <lane id=":gneJ200_1_0" index="0" speed="13.89" length="25.63" shape="-658.27,81.65 -683.90,81.65"/>
    </edge>
    <edge id=":gneJ201_0" function="internal">
        <lane id=":gneJ201_0_0" index="0" speed="13.89" length="25.39" shape="-658.50,91.65 -663.85,92.08 -671.10,93.08 -678.34,94.22 -683.66,95.05"/>
    </edge>
    <edge id=":gneJ201_1" function="internal">
        <lane id=":gneJ201_1_0" index="0" speed="13.89" length="25.63" shape="-658.50,91.65 -684.13,91.65"/>
    </edge>
    <edge id=":gneJ201_2" function="internal">
        <lane id=":gneJ201_2_0" index="0" speed="13.89" length="25.62" shape="-658.50,91.65 -663.88,91.22 -671.22,90.22 -678.54,89.08 -683.89,88.25"/>
    </edge>
    <edge id=":gneJ202_0" function="internal">
        <lane id=":gneJ202_0_0" index="0" speed="13.89" length="25.63" shape="-658.50,101.65 -684.13,101.65"/>
    </edge>
    <edge id=":gneJ202_1" function="internal">
        <lane id=":gneJ202_1_0" index="0" speed="13.89" length="25.62" shape="-658.50,101.65 -663.88,101.22 -671.22,100.22 -678.54,99.08 -683.89,98.25"/>
    </edge>
    <edge id=":gneJ203_0" function="internal">
        <lane id=":gneJ203_0_0" index="0" speed="13.89" length="25.63" shape="-705.87,101.65 -731.50,101.65"/>
    </edge>
    <edge id=":gneJ203_1" function="internal">
        <lane id=":gneJ203_1_0" index="0" speed="13.89" length="25.62" shape="-706.11,98.25 -711.46,99.08 -718.78,100.22 -726.12,101.22 -731.50,101.65"/>
    </edge>
    <edge id=":gneJ204_0" function="internal">
        <lane id=":gneJ204_0_0" index="0" speed="13.89" length="25.62" shape="-706.34,95.05 -711.70,94.22 -719.02,93.08 -726.35,92.08 -731.73,91.65"/>
    </edge>
    <edge id=":gneJ204_1" function="internal">
        <lane id=":gneJ204_1_0" index="0" speed="13.89" length="25.86" shape="-705.87,91.65 -731.73,91.65"/>
    </edge>
    <edge id=":gneJ204_2" function="internal">
        <lane id=":gneJ204_2_0" index="0" speed="13.89" length="25.85" shape="-706.11,88.25 -711.50,89.08 -718.90,90.22 -726.31,91.22 -731.73,91.65"/>
    </edge>
    <edge id=":gneJ205_0" function="internal">
        <lane id=":gneJ205_0_0" index="0" speed="13.89" length="25.62" shape="-706.34,85.05 -711.70,84.22 -719.02,83.08 -726.35,82.08 -731.73,81.65"/>
    </edge>
    <edge id=":gneJ205_1" function="internal">
        <lane id=":gneJ205_1_0" index="0" speed="13.89" length="25.63" shape="-706.10,81.65 -731.73,81.65"/>
    </edge>
    <edge id=":gneJ211_0" function="internal">
        <lane id=":gneJ211_0_0" index="0" speed="13.89" length="25.63" shape="81.65,-674.13 81.65,-648.50"/>
    </edge>
    <edge id=":gneJ211_1" function="internal">
        <lane id=":gneJ211_1_0" index="0" speed="13.89" length="25.62" shape="78.25,-673.89 79.08,-668.54 80.22,-661.22 81.22,-653.88 81.65,-648.50"/>
    </edge>
    <edge id=":gneJ212_0" function="internal">
        <lane id=":gneJ212_0_0" index="0" speed="13.89" length="25.62" shape="48.35,-498.27 47.92,-503.65 46.92,-510.98 45.78,-518.30 44.95,-523.66"/>
    </edge>
    <edge id=":gneJ212_1" function="internal">
        <lane id=":gneJ212_1_0" index="0" speed="13.89" length="25.63" shape="48.35,-498.27 48.35,-523.90"/>
    </edge>
    <edge id=":gneJ213_0" function="internal">
        <lane id=":gneJ213_0_0" index="0" speed="13.89" length="25.39" shape="38.35,-498.50 37.92,-503.85 36.92,-511.10 35.78,-518.34 34.95,-523.66"/>
    </edge>
    <edge id=":gneJ213_1" function="internal">
        <lane id=":gneJ213_1_0" index="0" speed="13.89" length="25.63" shape="38.35,-498.50 38.35,-524.13"/>
    </edge>
    <edge id=":gneJ213_2" function="internal">