<?xml version="1.0" encoding="UTF-8"?>

<!-- generated on 16/05/2018 13:55:58 by Netedit Version 0.32.0
<?xml version="1.0" encoding="UTF-8"?>

<configuration xmlns:xsi="http://www.w3.org/2001/XMLSchema-instance" xsi:noNamespaceSchemaLocation="http://sumo.dlr.de/xsd/netconvertConfiguration.xsd">

    <input>
        <sumo-net-file value="C:\Users\Abel\Documents\School\Year%202\Project%202-2\map.xml"/>
    </input>

    <output>
        <output-file value="C:\Users\Abel\Documents\School\Year%202\Project%202-2\Blauwdorp.net.xml"/>
    </output>

    <processing>
        <no-turnarounds value="true"/>
        <offset.disable-normalization value="true"/>
        <lefthand value="false"/>
        <junctions.corner-detail value="0"/>
        <rectangular-lane-cut value="false"/>
        <walkingareas value="false"/>
    </processing>

</configuration>
-->

<net version="0.27" xmlns:xsi="http://www.w3.org/2001/XMLSchema-instance" xsi:noNamespaceSchemaLocation="http://sumo.dlr.de/xsd/net_file.xsd">

    <location netOffset="-687675.23,-5635538.76" convBoundary="0.00,0.00,1433.74,1450.61" origBoundary="5.666161,50.840910,5.697525,50.853722" projParameter="+proj=utm +zone=31 +ellps=WGS84 +datum=WGS84 +units=m +no_defs"/>

    <type id="highway.bridleway" priority="1" numLanes="1" speed="2.78" allow="pedestrian" oneway="1" width="2.00"/>
    <type id="highway.bus_guideway" priority="1" numLanes="1" speed="8.33" allow="bus" oneway="1"/>
    <type id="highway.cycleway" priority="1" numLanes="1" speed="5.56" allow="bicycle" oneway="0" width="1.00"/>
    <type id="highway.footway" priority="1" numLanes="1" speed="2.78" allow="pedestrian" oneway="1" width="2.00"/>
    <type id="highway.ford" priority="1" numLanes="1" speed="2.78" allow="army" oneway="0"/>
    <type id="highway.living_street" priority="3" numLanes="1" speed="2.78" disallow="tram rail_urban rail rail_electric ship" oneway="0"/>
    <type id="highway.motorway" priority="13" numLanes="2" speed="44.44" allow="private emergency authority army vip passenger hov taxi bus coach delivery truck trailer motorcycle evehicle custom1 custom2" oneway="1"/>
    <type id="highway.motorway_link" priority="12" numLanes="1" speed="22.22" allow="private emergency authority army vip passenger hov taxi bus coach delivery truck trailer motorcycle evehicle custom1 custom2" oneway="1"/>
    <type id="highway.path" priority="1" numLanes="1" speed="2.78" allow="bicycle pedestrian" oneway="1" width="2.00"/>
    <type id="highway.pedestrian" priority="1" numLanes="1" speed="2.78" allow="pedestrian" oneway="1" width="2.00"/>
    <type id="highway.primary" priority="9" numLanes="2" speed="27.78" disallow="tram rail_urban rail rail_electric ship" oneway="0"/>
    <type id="highway.primary_link" priority="8" numLanes="1" speed="22.22" disallow="tram rail_urban rail rail_electric ship" oneway="0"/>
    <type id="highway.raceway" priority="14" numLanes="2" speed="83.33" allow="vip" oneway="0"/>
    <type id="highway.residential" priority="4" numLanes="1" speed="13.89" disallow="tram rail_urban rail rail_electric ship" oneway="0"/>
    <type id="highway.secondary" priority="7" numLanes="2" speed="27.78" disallow="tram rail_urban rail rail_electric ship" oneway="0"/>
    <type id="highway.secondary_link" priority="6" numLanes="1" speed="22.22" disallow="tram rail_urban rail rail_electric ship" oneway="0"/>
    <type id="highway.service" priority="2" numLanes="1" speed="5.56" allow="delivery bicycle pedestrian" oneway="0"/>
    <type id="highway.services" priority="1" numLanes="1" speed="8.33" disallow="tram rail_urban rail rail_electric ship" oneway="0"/>
    <type id="highway.stairs" priority="1" numLanes="1" speed="1.39" allow="pedestrian" oneway="1" width="2.00"/>
    <type id="highway.step" priority="1" numLanes="1" speed="1.39" allow="pedestrian" oneway="1" width="2.00"/>
    <type id="highway.steps" priority="1" numLanes="1" speed="1.39" allow="pedestrian" oneway="1" width="2.00"/>
    <type id="highway.tertiary" priority="6" numLanes="1" speed="22.22" disallow="tram rail_urban rail rail_electric ship" oneway="0"/>
    <type id="highway.tertiary_link" priority="5" numLanes="1" speed="22.22" disallow="tram rail_urban rail rail_electric ship" oneway="0"/>
    <type id="highway.track" priority="1" numLanes="1" speed="5.56" disallow="tram rail_urban rail rail_electric ship" oneway="0"/>
    <type id="highway.trunk" priority="11" numLanes="2" speed="27.78" disallow="tram rail_urban rail rail_electric bicycle pedestrian ship" oneway="0"/>
    <type id="highway.trunk_link" priority="10" numLanes="1" speed="22.22" disallow="tram rail_urban rail rail_electric bicycle pedestrian ship" oneway="0"/>
    <type id="highway.unclassified" priority="5" numLanes="1" speed="13.89" disallow="tram rail_urban rail rail_electric ship" oneway="0"/>
    <type id="highway.unsurfaced" priority="1" numLanes="1" speed="8.33" disallow="tram rail_urban rail rail_electric ship" oneway="0"/>
    <type id="railway.light_rail" priority="15" numLanes="1" speed="27.78" allow="rail_urban" oneway="1"/>
    <type id="railway.preserved" priority="15" numLanes="1" speed="27.78" allow="rail" oneway="1"/>
    <type id="railway.rail" priority="15" numLanes="1" speed="83.33" allow="rail rail_electric" oneway="1"/>
    <type id="railway.subway" priority="15" numLanes="1" speed="27.78" allow="rail_urban" oneway="1"/>
    <type id="railway.tram" priority="15" numLanes="1" speed="13.89" allow="tram" oneway="1"/>

    <edge id=":1016048504_0" function="internal">
        <lane id=":1016048504_0_0" index="0" allow="bicycle" speed="5.56" length="5.50" width="1.00" shape="1024.92,386.79 1029.99,388.95"/>
    </edge>
    <edge id=":1016048510_0" function="internal">
        <lane id=":1016048510_0_0" index="0" allow="bicycle" speed="5.56" length="5.02" width="1.00" shape="1066.24,392.05 1071.01,390.48"/>
    </edge>
    <edge id=":1016048514_0" function="internal">
        <lane id=":1016048514_0_0" index="0" allow="bicycle" speed="5.56" length="5.02" width="1.00" shape="1087.91,384.71 1092.64,383.04"/>
    </edge>
    <edge id=":1016048516_0" function="internal">
        <lane id=":1016048516_0_0" index="0" allow="bicycle" speed="5.56" length="5.11" width="1.00" shape="1101.12,379.86 1102.54,379.33 1103.50,378.93 1104.44,378.48 1105.78,377.78"/>
    </edge>
    <edge id=":1016048707_0" function="internal">
        <lane id=":1016048707_0_0" index="0" disallow="tram rail_urban rail rail_electric ship" speed="13.89" length="6.84" shape="964.22,262.16 961.69,268.61"/>
        <lane id=":1016048707_0_1" index="1" disallow="tram rail_urban rail rail_electric ship" speed="13.89" length="6.84" shape="961.13,261.00 958.67,267.28"/>
    </edge>
    <edge id=":1016048707_2" function="internal">
        <lane id=":1016048707_2_0" index="0" disallow="tram rail_urban rail rail_electric ship" speed="13.89" length="2.41" shape="961.13,261.00 959.92,261.87 959.01,261.97"/>
    </edge>
    <edge id=":1016048707_6" function="internal">
        <lane id=":1016048707_6_0" index="0" speed="13.89" length="2.41" shape="959.01,261.97 958.38,261.29 958.04,259.84"/>
    </edge>
    <edge id=":1016048707_3" function="internal">
        <lane id=":1016048707_3_0" index="0" disallow="tram rail_urban rail rail_electric ship" speed="13.89" length="6.47" shape="952.63,264.63 954.95,258.68"/>
        <lane id=":1016048707_3_1" index="1" disallow="tram rail_urban rail rail_electric ship" speed="13.89" length="6.47" shape="955.65,265.96 958.04,259.84"/>
    </edge>
    <edge id=":1016048707_5" function="internal">
        <lane id=":1016048707_5_0" index="0" disallow="tram rail_urban rail rail_electric ship" speed="13.89" length="2.41" shape="955.65,265.96 956.91,265.15 957.83,265.11"/>
    </edge>
    <edge id=":1016048707_7" function="internal">
        <lane id=":1016048707_7_0" index="0" speed="13.89" length="2.41" shape="957.83,265.11 958.42,265.82 958.67,267.28"/>
    </edge>
    <edge id=":1232580150_0" function="internal">
        <lane id=":1232580150_0_0" index="0" disallow="tram rail_urban rail rail_electric ship" speed="6.95" length="5.98" shape="842.77,930.18 844.24,931.12 845.07,932.00 845.79,933.02 846.92,934.40"/>
    </edge>
    <edge id=":1232580150_1" function="internal">
        <lane id=":1232580150_1_0" index="0" disallow="tram rail_urban rail rail_electric ship" speed="8.33" length="4.63" shape="842.70,933.56 843.86,933.20 844.96,933.22 845.98,933.62 846.92,934.40"/>
    </edge>
    <edge id=":1256687064_0" function="internal">
        <lane id=":1256687064_0_0" index="0" allow="bicycle" speed="5.56" length="1.61" width="1.00" shape="1221.17,258.28 1221.13,257.79 1221.26,257.51 1221.56,257.45 1222.03,257.60"/>
    </edge>
    <edge id=":1256687064_1" function="internal">
        <lane id=":1256687064_1_0" index="0" allow="bicycle" speed="9.73" length="5.06" width="1.00" shape="1217.66,257.22 1218.83,256.45 1219.94,256.26 1221.01,256.64 1222.03,257.60"/>
    </edge>
    <edge id=":1256908096_0" function="internal">
        <lane id=":1256908096_0_0" index="0" disallow="tram rail_urban rail rail_electric ship" speed="8.33" length="5.01" shape="943.09,913.42 941.74,913.13 940.63,913.34 939.76,914.05 939.11,915.27"/>
    </edge>
    <edge id=":1256908096_1" function="internal">
        <lane id=":1256908096_1_0" index="0" disallow="tram rail_urban rail rail_electric ship" speed="8.33" length="4.82" shape="943.09,913.42 942.21,912.22 942.12,911.30 942.79,910.67 944.24,910.33"/>
    </edge>
    <edge id=":1256908096_2" function="internal">
        <lane id=":1256908096_2_0" index="0" disallow="tram rail_urban rail rail_electric ship" speed="8.33" length="5.08" shape="942.21,906.32 941.98,907.66 942.23,908.77 942.99,909.66 944.24,910.33"/>
    </edge>
    <edge id=":1256908096_3" function="internal">
        <lane id=":1256908096_3_0" index="0" disallow="tram rail_urban rail rail_electric ship" speed="8.33" length="9.47" shape="942.21,906.32 939.11,915.27"/>
    </edge>
    <edge id=":1256908098_0" function="internal">
        <lane id=":1256908098_0_0" index="0" disallow="tram rail_urban rail rail_electric ship" speed="8.33" length="9.46" shape="988.32,923.49 984.67,932.22"/>
    </edge>
    <edge id=":1256908098_1" function="internal">
        <lane id=":1256908098_1_0" index="0" disallow="tram rail_urban rail rail_electric ship" speed="8.33" length="7.87" shape="988.32,923.49 987.04,925.96 985.71,927.57 984.33,928.32 982.90,928.21"/>
    </edge>
    <edge id=":1256908098_2" function="internal">
        <lane id=":1256908098_2_0" index="0" disallow="tram rail_urban rail rail_electric ship" speed="8.33" length="7.92" shape="984.05,925.11 985.22,925.98 985.72,927.45 985.54,929.53 984.67,932.22"/>
    </edge>
    <edge id=":1256908098_3" function="internal">
        <lane id=":1256908098_3_0" index="0" disallow="tram rail_urban rail rail_electric ship" speed="8.33" length="4.82" shape="984.05,925.11 984.92,926.32 985.02,927.24 984.35,927.87 982.90,928.21"/>
    </edge>
    <edge id=":1256908100_0" function="internal">
        <lane id=":1256908100_0_0" index="0" disallow="tram rail_urban rail rail_electric ship" speed="8.33" length="5.11" shape="964.39,850.27 963.02,849.90 961.90,850.07 961.02,850.79 960.38,852.06"/>
    </edge>
    <edge id=":1256908100_1" function="internal">
        <lane id=":1256908100_1_0" index="0" disallow="tram rail_urban rail rail_electric ship" speed="8.33" length="4.82" shape="964.39,850.27 963.58,849.02 963.53,848.10 964.24,847.51 965.70,847.24"/>
    </edge>
    <edge id=":1256908100_2" function="internal">
        <lane id=":1256908100_2_0" index="0" disallow="tram rail_urban rail rail_electric ship" speed="8.33" length="5.28" shape="963.66,843.04 963.37,844.36 963.61,845.51 964.39,846.47 965.70,847.24"/>
    </edge>
    <edge id=":1256908100_3" function="internal">
        <lane id=":1256908100_3_0" index="0" disallow="tram rail_urban rail rail_electric ship" speed="8.33" length="9.59" shape="963.66,843.04 960.38,852.06"/>
    </edge>
    <edge id=":1280309373_0" function="internal">
        <lane id=":1280309373_0_0" index="0" disallow="tram rail_urban rail rail_electric ship" speed="9.73" length="4.87" shape="351.16,917.11 351.34,918.75 351.85,919.58 352.69,919.59 353.86,918.80"/>
    </edge>
    <edge id=":1280309373_1" function="internal">
        <lane id=":1280309373_1_0" index="0" allow="bicycle" speed="5.56" length="1.61" width="1.00" shape="351.16,917.11 350.89,917.53 350.62,917.67 350.34,917.53 350.06,917.12"/>
    </edge>
    <edge id=":1280309373_2" function="internal">
        <lane id=":1280309373_2_0" index="0" allow="bicycle" speed="9.73" length="5.67" width="1.00" shape="349.71,922.49 350.55,921.21 350.59,920.08 350.27,918.82 350.06,917.12"/>
    </edge>
    <edge id=":1280309373_3" function="internal">
        <lane id=":1280309373_3_0" index="0" disallow="tram rail_urban rail rail_electric ship" speed="13.89" length="5.42" shape="349.71,922.49 353.86,918.80"/>
        <lane id=":1280309373_3_1" index="1" disallow="tram rail_urban rail rail_electric ship" speed="13.89" length="5.42" shape="352.11,924.76 356.06,921.25"/>
    </edge>
    <edge id=":1480212347_0" function="internal">
        <lane id=":1480212347_0_0" index="0" disallow="tram rail_urban rail rail_electric ship" speed="18.06" length="5.47" shape="1120.79,434.36 1120.91,435.61 1121.42,436.74 1122.34,437.77 1123.65,438.68"/>
    </edge>
    <edge id=":1480212347_1" function="internal">
        <lane id=":1480212347_1_0" index="0" disallow="tram rail_urban rail rail_electric ship" speed="13.89" length="5.87" shape="1120.79,434.36 1120.68,436.19 1120.55,437.45 1120.24,438.67 1119.60,440.38"/>
        <lane id=":1480212347_1_1" index="1" disallow="tram rail_urban rail rail_electric ship" speed="13.89" length="5.87" shape="1117.49,434.16 1117.39,435.80 1117.25,436.93 1116.96,438.02 1116.37,439.56"/>
    </edge>
    <edge id=":1480212348_0" function="internal">
        <lane id=":1480212348_0_0" index="0" disallow="tram rail_urban rail rail_electric ship" speed="13.89" length="11.06" shape="1078.63,455.28 1076.12,453.62 1074.66,451.90 1073.42,449.81 1071.54,447.03"/>
    </edge>
    <edge id=":1480212348_1" function="internal">
        <lane id=":1480212348_1_0" index="0" disallow="tram rail_urban rail rail_electric ship" speed="13.89" length="8.26" shape="1069.70,455.69 1070.01,453.62 1070.21,452.11 1069.95,450.73 1068.92,449.04"/>
        <lane id=":1480212348_1_1" index="1" disallow="tram rail_urban rail rail_electric ship" speed="13.89" length="8.26" shape="1072.98,456.04 1073.35,453.22 1073.48,451.19 1073.00,449.32 1071.54,447.03"/>
    </edge>
    <edge id=":1480212349_0" function="internal">
        <lane id=":1480212349_0_0" index="0" disallow="tram rail_urban rail rail_electric ship" speed="13.89" length="6.53" shape="1090.23,460.14 1089.06,460.29 1087.74,460.85 1086.26,461.84 1084.64,463.24"/>
    </edge>
    <edge id=":1480212349_1" function="internal">
        <lane id=":1480212349_1_0" index="0" disallow="tram rail_urban rail rail_electric ship" speed="13.89" length="9.21" shape="1090.41,456.85 1088.56,457.02 1086.60,457.74 1084.54,459.02 1082.37,460.84"/>
    </edge>
    <edge id=":1480212349_2" function="internal">
        <lane id=":1480212349_2_0" index="0" disallow="tram rail_urban rail rail_electric ship" speed="13.89" length="11.34" shape="1090.41,456.85 1086.95,456.85 1084.43,456.98 1082.12,456.74 1079.30,455.62"/>
    </edge>
    <edge id=":1480212351_0" function="internal">
        <lane id=":1480212351_0_0" index="0" disallow="tram rail_urban rail rail_electric ship" speed="18.06" length="7.89" shape="1119.37,451.61 1116.63,451.37 1114.44,451.42 1112.79,451.76 1111.70,452.39"/>
    </edge>
    <edge id=":1480212351_1" function="internal">
        <lane id=":1480212351_1_0" index="0" disallow="tram rail_urban rail rail_electric ship" speed="18.06" length="10.78" shape="1119.79,448.34 1116.30,448.08 1113.41,448.27 1111.12,448.91 1109.43,449.99"/>
    </edge>
    <edge id=":1480212351_2" function="internal">
        <lane id=":1480212351_2_0" index="0" disallow="tram rail_urban rail rail_electric ship" speed="13.89" length="10.07" shape="1117.95,444.28 1116.43,446.94 1115.28,448.69 1113.89,450.27 1111.70,452.39"/>
        <lane id=":1480212351_2_1" index="1" disallow="tram rail_urban rail rail_electric ship" speed="13.89" length="10.07" shape="1115.29,442.28 1114.11,444.91 1113.00,446.57 1111.58,448.02 1109.43,449.99"/>
    </edge>
    <edge id=":1480212352_0" function="internal">
        <lane id=":1480212352_0_0" index="0" disallow="tram rail_urban rail rail_electric ship" speed="13.89" length="6.06" shape="1062.74,429.65 1062.59,428.48 1062.03,427.26 1061.07,425.96 1059.70,424.61"/>
    </edge>
    <edge id=":1480212352_1" function="internal">
        <lane id=":1480212352_1_0" index="0" disallow="tram rail_urban rail rail_electric ship" speed="13.89" length="9.00" shape="1066.04,429.80 1065.85,427.88 1065.09,425.96 1063.77,424.05 1061.88,422.13"/>
    </edge>
    <edge id=":1480212352_2" function="internal">
        <lane id=":1480212352_2_0" index="0" disallow="tram rail_urban rail rail_electric ship" speed="13.89" length="10.56" shape="1066.04,429.80 1065.75,426.63 1065.12,424.29 1065.06,422.18 1066.45,419.70"/>
    </edge>
    <edge id=":1659051740_0" function="internal">
        <lane id=":1659051740_0_0" index="0" allow="delivery bicycle pedestrian" speed="5.56" length="4.96" shape="400.95,831.53 400.01,830.40 399.32,829.68 398.57,829.00 397.46,828.03"/>
    </edge>
    <edge id=":1659051740_1" function="internal">
        <lane id=":1659051740_1_0" index="0" allow="bicycle" speed="5.56" length="2.63" width="1.00" shape="400.95,831.53 400.70,830.60 400.95,829.09 401.00,828.97"/>
    </edge>
    <edge id=":1659051740_2" function="internal">
        <lane id=":1659051740_2_0" index="0" allow="delivery bicycle pedestrian" speed="5.56" length="2.41" shape="400.95,831.53 400.83,830.05 401.22,829.21"/>
    </edge>
    <edge id=":1659051740_9" function="internal">
        <lane id=":1659051740_9_0" index="0" speed="5.56" length="5.09" width="1.00" shape="401.00,828.97 401.71,826.98 402.98,824.28"/>
    </edge>
    <edge id=":1659051740_10" function="internal">
        <lane id=":1659051740_10_0" index="0" speed="5.56" length="2.41" shape="401.22,829.21 402.12,829.02 403.53,829.48"/>
    </edge>
    <edge id=":1659051740_3" function="internal">
        <lane id=":1659051740_3_0" index="0" allow="delivery bicycle pedestrian" speed="5.56" length="4.96" shape="403.96,824.77 403.32,826.27 403.04,827.55 403.11,828.62 403.53,829.48"/>
    </edge>
    <edge id=":1659051740_4" function="internal">
        <lane id=":1659051740_4_0" index="0" allow="delivery bicycle pedestrian" speed="5.56" length="8.68" shape="403.96,824.77 402.36,827.32 400.75,828.71 399.12,828.95 397.46,828.03"/>
    </edge>
    <edge id=":1659051740_5" function="internal">
        <lane id=":1659051740_5_0" index="0" allow="bicycle" speed="5.56" length="1.61" width="1.00" shape="403.96,824.77 403.53,825.02 403.22,825.02 403.04,824.77 402.98,824.28"/>
    </edge>
    <edge id=":1659051740_6" function="internal">
        <lane id=":1659051740_6_0" index="0" allow="bicycle" speed="5.56" length="4.31" width="1.00" shape="399.67,825.58 400.56,826.11 401.41,826.07 402.21,825.46 402.98,824.28"/>
    </edge>
    <edge id=":1659051740_7" function="internal">
        <lane id=":1659051740_7_0" index="0" allow="delivery bicycle pedestrian" speed="5.56" length="5.51" shape="399.67,825.58 400.89,826.66 401.72,827.41 402.50,828.22 403.53,829.48"/>
    </edge>
    <edge id=":1659051740_8" function="internal">
        <lane id=":1659051740_8_0" index="0" allow="delivery bicycle pedestrian" speed="5.56" length="2.41" shape="399.67,825.58 400.04,827.02 399.79,827.91"/>
    </edge>
    <edge id=":1659051740_11" function="internal">
        <lane id=":1659051740_11_0" index="0" speed="5.56" length="2.41" shape="399.79,827.91 398.93,828.24 397.46,828.03"/>
    </edge>
    <edge id=":1867085994_0" function="internal">
        <lane id=":1867085994_0_0" index="0" disallow="tram rail_urban rail rail_electric ship" speed="13.89" length="5.12" shape="527.52,896.50 532.56,897.35"/>
    </edge>
    <edge id=":1867085994_1" function="internal">
        <lane id=":1867085994_1_0" index="0" allow="bicycle" speed="9.73" length="4.00" width="1.00" shape="527.52,896.50 528.85,896.84 529.75,897.32 530.23,897.97 530.29,898.77"/>
    </edge>
    <edge id=":1867085994_2" function="internal">
        <lane id=":1867085994_2_0" index="0" disallow="tram rail_urban rail rail_electric ship" speed="9.73" length="3.98" shape="529.20,898.57 529.53,897.84 530.20,897.39 531.21,897.23 532.56,897.35"/>
    </edge>
    <edge id=":1867085994_3" function="internal">
        <lane id=":1867085994_3_0" index="0" allow="bicycle" speed="5.56" length="1.61" width="1.00" shape="529.20,898.57 529.55,898.21 529.84,898.13 530.09,898.31 530.29,898.77"/>
    </edge>
    <edge id=":1867085999_0" function="internal">
        <lane id=":1867085999_0_0" index="0" disallow="tram rail_urban rail rail_electric ship" speed="13.89" length="9.50" shape="671.89,939.54 662.53,937.93"/>
    </edge>
    <edge id=":1867085999_1" function="internal">
        <lane id=":1867085999_1_0" index="0" disallow="tram rail_urban rail rail_electric ship" speed="13.89" length="6.95" shape="671.89,939.54 669.13,938.96 667.21,938.32 666.12,937.62 665.86,936.85"/>
    </edge>
    <edge id=":1867085999_2" function="internal">
        <lane id=":1867085999_2_0" index="0" disallow="tram rail_urban rail rail_electric ship" speed="13.89" length="4.77" shape="669.10,937.49 668.57,938.09 667.30,938.36 665.29,938.31 664.63,938.22"/>
    </edge>
    <edge id=":1867085999_3" function="internal">
        <lane id=":1867085999_3_0" index="0" disallow="tram rail_urban rail rail_electric ship" speed="13.89" length="2.41" shape="669.10,937.49 668.05,938.54 667.16,938.79"/>
    </edge>
    <edge id=":1867085999_4" function="internal">
        <lane id=":1867085999_4_0" index="0" speed="13.89" length="2.12" shape="664.63,938.22 662.53,937.93"/>
    </edge>
    <edge id=":1867085999_5" function="internal">
        <lane id=":1867085999_5_0" index="0" speed="13.89" length="2.41" shape="667.16,938.79 666.43,938.23 665.86,936.85"/>
    </edge>
    <edge id=":1899737964_0" function="internal">
        <lane id=":1899737964_0_0" index="0" allow="delivery bicycle pedestrian" speed="5.56" length="9.50" shape="217.27,712.33 212.76,720.69"/>
    </edge>
    <edge id=":1899737964_1" function="internal">
        <lane id=":1899737964_1_0" index="0" allow="delivery bicycle pedestrian" speed="5.56" length="10.32" shape="217.27,712.33 215.60,714.58 213.60,715.76 211.25,715.88 208.57,714.93"/>
    </edge>
    <edge id=":1899737964_2" function="internal">
        <lane id=":1899737964_2_0" index="0" allow="delivery bicycle pedestrian" speed="5.56" length="4.82" shape="217.27,712.33 215.96,713.03 215.04,713.00 214.51,712.24 214.37,710.76"/>
    </edge>
    <edge id=":1899737964_3" function="internal">
        <lane id=":1899737964_3_0" index="0" allow="delivery bicycle pedestrian" speed="5.56" length="5.07" shape="210.09,712.00 211.41,712.47 212.57,712.43 213.55,711.86 214.37,710.76"/>
    </edge>
    <edge id=":1899737964_4" function="internal">
        <lane id=":1899737964_4_0" index="0" allow="delivery bicycle pedestrian" speed="5.56" length="10.40" shape="210.09,712.00 212.41,713.67 213.63,715.67 213.75,718.01 212.76,720.69"/>
    </edge>
    <edge id=":1899737964_5" function="internal">
        <lane id=":1899737964_5_0" index="0" allow="delivery bicycle pedestrian" speed="5.56" length="4.82" shape="210.09,712.00 210.81,713.31 210.79,714.23 210.05,714.77 208.57,714.93"/>
    </edge>
    <edge id=":1899737964_6" function="internal">
        <lane id=":1899737964_6_0" index="0" allow="delivery bicycle pedestrian" speed="5.56" length="5.02" shape="209.86,719.12 210.33,717.83 210.28,716.70 209.69,715.73 208.57,714.93"/>
    </edge>
    <edge id=":1899737964_7" function="internal">
        <lane id=":1899737964_7_0" index="0" allow="delivery bicycle pedestrian" speed="5.56" length="9.50" shape="209.86,719.12 214.37,710.76"/>
    </edge>
    <edge id=":1899737964_8" function="internal">
        <lane id=":1899737964_8_0" index="0" allow="delivery bicycle pedestrian" speed="5.56" length="4.82" shape="209.86,719.12 211.17,718.43 212.09,718.45 212.62,719.21 212.76,720.69"/>
    </edge>
    <edge id=":1923905789_0" function="internal">
        <lane id=":1923905789_0_0" index="0" allow="delivery bicycle pedestrian" speed="13.89" length="0.10" shape="415.66,901.50 415.58,901.52"/>
    </edge>
    <edge id=":1923905789_1" function="internal">
        <lane id=":1923905789_1_0" index="0" allow="delivery bicycle pedestrian" speed="13.89" length="2.41" shape="415.66,901.50 414.21,901.16 413.53,900.53"/>
    </edge>
    <edge id=":1923905789_4" function="internal">
        <lane id=":1923905789_4_0" index="0" speed="13.89" length="2.41" shape="413.53,900.53 413.63,899.61 414.50,898.40"/>
    </edge>
    <edge id=":1923905789_2" function="internal">
        <lane id=":1923905789_2_0" index="0" allow="delivery bicycle pedestrian" speed="13.89" length="0.10" shape="414.58,898.38 414.50,898.40"/>
    </edge>
    <edge id=":1923905789_3" function="internal">
        <lane id=":1923905789_3_0" index="0" allow="delivery bicycle pedestrian" speed="13.89" length="2.41" shape="414.58,898.38 416.01,898.79 416.65,899.45"/>
    </edge>
    <edge id=":1923905789_5" function="internal">
        <lane id=":1923905789_5_0" index="0" speed="13.89" length="2.41" shape="416.65,899.45 416.51,900.36 415.58,901.52"/>
    </edge>
    <edge id=":2101830116_0" function="internal">
        <lane id=":2101830116_0_0" index="0" allow="delivery bicycle pedestrian" speed="13.89" length="1.14" shape="762.62,960.64 762.39,960.39 762.24,960.21 762.12,960.01 761.98,959.71"/>
    </edge>
    <edge id=":2101830116_1" function="internal">
        <lane id=":2101830116_1_0" index="0" allow="delivery bicycle pedestrian" speed="13.89" length="2.41" shape="762.62,960.64 762.44,959.16 762.80,958.31"/>
    </edge>
    <edge id=":2101830116_4" function="internal">
        <lane id=":2101830116_4_0" index="0" speed="13.89" length="2.41" shape="762.80,958.31 763.69,958.09 765.13,958.49"/>
    </edge>
    <edge id=":2101830116_2" function="internal">
        <lane id=":2101830116_2_0" index="0" allow="delivery bicycle pedestrian" speed="13.89" length="0.11" shape="765.03,958.45 765.13,958.49"/>
    </edge>
    <edge id=":2101830116_3" function="internal">
        <lane id=":2101830116_3_0" index="0" allow="delivery bicycle pedestrian" speed="13.89" length="2.41" shape="765.03,958.45 764.74,959.90 764.13,960.60"/>
    </edge>
    <edge id=":2101830116_5" function="internal">
        <lane id=":2101830116_5_0" index="0" speed="13.89" length="2.41" shape="764.13,960.60 763.21,960.53 761.98,959.71"/>
    </edge>
    <edge id=":2241878913_0" function="internal">
        <lane id=":2241878913_0_0" index="0" disallow="tram rail_urban rail rail_electric ship" speed="9.73" length="4.09" shape="429.92,888.34 429.50,887.20 428.88,886.49 428.04,886.21 427.00,886.35"/>
    </edge>
    <edge id=":2241878913_1" function="internal">
        <lane id=":2241878913_1_0" index="0" allow="bicycle" speed="5.56" length="1.61" width="1.00" shape="429.92,888.34 430.09,887.88 430.33,887.68 430.63,887.76 430.99,888.10"/>
    </edge>
    <edge id=":2241878913_2" function="internal">
        <lane id=":2241878913_2_0" index="0" allow="bicycle" speed="9.73" length="4.90" width="1.00" shape="431.62,883.47 431.04,884.16 430.74,885.16 430.72,886.47 430.99,888.10"/>
    </edge>
    <edge id=":2241878913_3" function="internal">
        <lane id=":2241878913_3_0" index="0" disallow="tram rail_urban rail rail_electric ship" speed="13.89" length="5.31" shape="431.62,883.47 430.33,884.49 429.46,885.21 428.51,885.79 427.00,886.35"/>
        <lane id=":2241878913_3_1" index="1" disallow="tram rail_urban rail rail_electric ship" speed="13.89" length="5.31" shape="429.67,880.81 428.47,881.75 427.64,882.40 426.74,882.92 425.33,883.43"/>
    </edge>
    <edge id=":2241878921_0" function="internal">
        <lane id=":2241878921_0_0" index="0" disallow="tram rail_urban rail rail_electric ship" speed="13.89" length="4.60" shape="436.23,904.11 434.87,904.01 433.93,904.03 433.01,904.19 431.68,904.50"/>
    </edge>
    <edge id=":2241878921_1" function="internal">
        <lane id=":2241878921_1_0" index="0" allow="bicycle" speed="9.73" length="4.87" width="1.00" shape="436.23,904.11 435.03,903.83 434.08,903.22 433.37,902.28 432.91,901.03"/>
    </edge>
    <edge id=":2241878921_2" function="internal">
        <lane id=":2241878921_2_0" index="0" disallow="tram rail_urban rail rail_electric ship" speed="9.73" length="5.01" shape="433.98,900.77 434.11,902.14 433.77,903.22 432.96,904.00 431.68,904.50"/>
    </edge>
    <edge id=":2241878921_3" function="internal">
        <lane id=":2241878921_3_0" index="0" allow="bicycle" speed="5.56" length="1.61" width="1.00" shape="433.98,900.77 433.81,901.23 433.57,901.43 433.27,901.36 432.91,901.03"/>
    </edge>
    <edge id=":2264401657_0" function="internal">
        <lane id=":2264401657_0_0" index="0" disallow="tram rail_urban rail rail_electric ship" speed="9.73" length="5.84" shape="825.17,988.20 823.61,988.98 822.51,989.94 821.86,991.07 821.68,992.39"/>
    </edge>
    <edge id=":2264401657_1" function="internal">
        <lane id=":2264401657_1_0" index="0" allow="bicycle" speed="5.56" length="10.00" width="1.00" shape="825.17,988.20 822.39,989.18 820.41,989.62 818.36,989.77 815.40,989.87"/>
    </edge>
    <edge id=":2264401657_2" function="internal">