<?xml version="1.0" encoding="UTF-8"?>

<!-- generated on 16/05/2018 13:59:10 by Netedit Version 0.32.0
<?xml version="1.0" encoding="UTF-8"?>

<configuration xmlns:xsi="http://www.w3.org/2001/XMLSchema-instance" xsi:noNamespaceSchemaLocation="http://sumo.dlr.de/xsd/netconvertConfiguration.xsd">

    <input>
        <sumo-net-file value="C:\Users\Abel\Documents\School\Year%202\Project%202-2\map.xml"/>
    </input>

    <output>
        <output-file value="C:\Users\Abel\Documents\School\Year%202\Project%202-2\Blauwdorp.net.xml"/>
        <plain-output-prefix value="C:\Users\Abel\Documents\School\Year%202\Project%202-2\Blauwdorp"/>
    </output>

    <processing>
        <no-turnarounds value="true"/>
        <offset.disable-normalization value="true"/>
        <lefthand value="false"/>
        <junctions.corner-detail value="0"/>
        <rectangular-lane-cut value="false"/>
        <walkingareas value="false"/>
    </processing>

</configuration>
-->

<connections version="0.27" xmlns:xsi="http://www.w3.org/2001/XMLSchema-instance" xsi:noNamespaceSchemaLocation="http://sumo.dlr.de/xsd/connections_file.xsd">
    <connection from="-109868517#0" to="109868517#0" fromLane="0" toLane="0"/>

    <connection from="-109868517#1" to="-109868517#0" fromLane="0" toLane="0"/>
    <connection from="-109868517#1" to="144282335#1" fromLane="0" toLane="1"/>
    <connection from="-109868517#1" to="109868517#1" fromLane="0" toLane="0"/>

    <connection from="-109868517#2" to="7127023#1" fromLane="0" toLane="0"/>
    <connection from="-109868517#2" to="-109868517#1" fromLane="0" toLane="0"/>
    <connection from="-109868517#2" to="109868517#2" fromLane="0" toLane="0"/>

    <connection from="-109889825" to="7127243#2" fromLane="0" toLane="0"/>
    <connection from="-109889825" to="109889825" fromLane="0" toLane="0"/>

    <connection from="-131357940" to="131357940" fromLane="0" toLane="0"/>

    <connection from="-131357942" to="217159931#3" fromLane="0" toLane="0"/>
    <connection from="-131357942" to="131357942" fromLane="0" toLane="0"/>

    <connection from="-131426324" to="-177687072" fromLane="0" toLane="0"/>
    <connection from="-131426324" to="177687071" fromLane="0" toLane="0"/>
    <connection from="-131426324" to="177687071" fromLane="1" toLane="1"/>
    <connection from="-131426324" to="131426324" fromLane="1" toLane="1"/>

    <connection from="-143878765" to="47448001" fromLane="0" toLane="0"/>
    <connection from="-143878765" to="26792566" fromLane="0" toLane="0"/>
    <connection from="-143878765" to="26792566" fromLane="1" toLane="1"/>
    <connection from="-143878765" to="143878765" fromLane="1" toLane="1"/>

    <connection from="-148641162#0" to="-7127071#3" fromLane="0" toLane="0"/>
    <connection from="-148641162#0" to="-7127313#3" fromLane="0" toLane="0"/>
    <connection from="-148641162#0" to="148641162#0" fromLane="0" toLane="0"/>

    <connection from="-148641162#1" to="-148641162#0" fromLane="0" toLane="0"/>
    <connection from="-148641162#1" to="7127319" fromLane="0" toLane="0"/>
    <connection from="-148641162#1" to="148641162#1" fromLane="0" toLane="0"/>

    <connection from="-153190730" to="-7127131#0" fromLane="0" toLane="0"/>
    <connection from="-153190730" to="7127131#1" fromLane="0" toLane="0"/>
    <connection from="-153190730" to="153190730" fromLane="0" toLane="0"/>

    <connection from="-176151124" to="217159931#0" fromLane="0" toLane="0"/>
    <connection from="-176151124" to="176151124" fromLane="0" toLane="0"/>

    <connection from="-177687070" to="-552622784" fromLane="0" toLane="0"/>
    <connection from="-177687070" to="-552622784" fromLane="1" toLane="1"/>
    <connection from="-177687070" to="478356157" fromLane="1" toLane="0"/>
    <connection from="-177687070" to="177687070" fromLane="1" toLane="1"/>

    <connection from="-177687071" to="7127313#0" fromLane="0" toLane="0"/>
    <connection from="-177687071" to="131426324" fromLane="0" toLane="0"/>
    <connection from="-177687071" to="131426324" fromLane="1" toLane="1"/>
    <connection from="-177687071" to="177687071" fromLane="1" toLane="1"/>

    <connection from="-177687072" to="-7127037" fromLane="0" toLane="0"/>
    <connection from="-177687072" to="-7127152" fromLane="0" toLane="0"/>
    <connection from="-177687072" to="177687072" fromLane="0" toLane="0"/>

    <connection from="-179152157" to="179152158" fromLane="0" toLane="0"/>
    <connection from="-179152157" to="179152157" fromLane="0" toLane="0"/>

    <connection from="-179577972" to="27993169#1" fromLane="0" toLane="0"/>
    <connection from="-179577972" to="-27993169#0" fromLane="0" toLane="0"/>
    <connection from="-179577972" to="179577972" fromLane="0" toLane="0"/>

    <connection from="-182048581#0" to="-179152157" fromLane="0" toLane="0"/>
    <connection from="-182048581#0" to="-143878765" fromLane="0" toLane="0"/>
    <connection from="-182048581#0" to="-143878765" fromLane="1" toLane="1"/>
    <connection from="-182048581#0" to="-176151124" fromLane="1" toLane="0"/>
    <connection from="-182048581#0" to="182048581#0" fromLane="1" toLane="1"/>

    <connection from="-182048581#1" to="7127258#1" fromLane="0" toLane="0"/>
    <connection from="-182048581#1" to="-182048581#0" fromLane="0" toLane="0"/>
    <connection from="-182048581#1" to="-182048581#0" fromLane="1" toLane="1"/>
    <connection from="-182048581#1" to="-7127258#0" fromLane="1" toLane="0"/>
    <connection from="-182048581#1" to="182048581#1" fromLane="1" toLane="1"/>

    <connection from="-182142597" to="182142596" fromLane="0" toLane="0"/>
    <connection from="-182142597" to="182142597" fromLane="0" toLane="0"/>

    <connection from="-195578175#0" to="7126753" fromLane="0" toLane="0"/>
    <connection from="-195578175#0" to="-109868517#2" fromLane="0" toLane="0"/>
    <connection from="-195578175#0" to="195578175#0" fromLane="0" toLane="0"/>

    <connection from="-195578175#1" to="-195578175#0" fromLane="0" toLane="0"/>
    <connection from="-195578175#1" to="195578175#1" fromLane="0" toLane="0"/>

    <connection from="-195578175#2" to="-195578175#1" fromLane="0" toLane="0"/>
    <connection from="-195578175#2" to="195578175#2" fromLane="0" toLane="0"/>

    <connection from="-200186206#0" to="-217153260" fromLane="0" toLane="0"/>
    <connection from="-200186206#0" to="200186206#0" fromLane="0" toLane="0"/>

    <connection from="-200186206#1" to="-424084915#0" fromLane="0" toLane="0"/>
    <connection from="-200186206#1" to="-200186206#0" fromLane="0" toLane="0"/>
    <connection from="-200186206#1" to="200186206#1" fromLane="0" toLane="0"/>
    <connection from="-200186206#1" to="424084915#1" fromLane="0" toLane="0"/>

    <connection from="-200186208#0" to="143878768#0" fromLane="0" toLane="0"/>
    <connection from="-200186208#0" to="200186208#0" fromLane="0" toLane="0"/>

    <connection from="-200186208#1" to="424084916#1" fromLane="0" toLane="0"/>
    <connection from="-200186208#1" to="-200186208#0" fromLane="0" toLane="0"/>
    <connection from="-200186208#1" to="-424084916#0" fromLane="0" toLane="0"/>
    <connection from="-200186208#1" to="200186208#1" fromLane="0" toLane="0"/>

    <connection from="-200186569" to="-200186570#1" fromLane="0" toLane="0"/>
    <connection from="-200186569" to="200186569" fromLane="0" toLane="0"/>

    <connection from="-200186570#0" to="-47448001" fromLane="0" toLane="0"/>
    <connection from="-200186570#0" to="200186570#0" fromLane="0" toLane="0"/>

    <connection from="-200186570#1" to="-214704503#0" fromLane="0" toLane="0"/>
    <connection from="-200186570#1" to="-200186570#0" fromLane="0" toLane="0"/>
    <connection from="-200186570#1" to="214704503#1" fromLane="0" toLane="0"/>
    <connection from="-200186570#1" to="200186570#1" fromLane="0" toLane="0"/>

    <connection from="-214164533" to="214164535" fromLane="0" toLane="0"/>
    <connection from="-214164533" to="-7127123" fromLane="0" toLane="0"/>
    <connection from="-214164533" to="214164533" fromLane="0" toLane="0"/>

    <connection from="-214704503#0" to="71002091#1" fromLane="0" toLane="0"/>
    <connection from="-214704503#0" to="214704503#0" fromLane="0" toLane="0"/>

    <connection from="-214704503#1" to="200186570#1" fromLane="0" toLane="0"/>
    <connection from="-214704503#1" to="-214704503#0" fromLane="0" toLane="0"/>
    <connection from="-214704503#1" to="-200186570#0" fromLane="0" toLane="0"/>
    <connection from="-214704503#1" to="214704503#1" fromLane="0" toLane="0"/>

    <connection from="-217153260" to="-200186208#1" fromLane="0" toLane="0"/>
    <connection from="-217153260" to="217153260" fromLane="0" toLane="0"/>

    <connection from="-229915458#0" to="60892298#2" fromLane="0" toLane="0"/>
    <connection from="-229915458#0" to="-60892298#1" fromLane="0" toLane="0"/>
    <connection from="-229915458#0" to="229915458#0" fromLane="0" toLane="0"/>

    <connection from="-229915458#1" to="-229915458#0" fromLane="0" toLane="0"/>
    <connection from="-229915458#1" to="-7127131#1" fromLane="0" toLane="0"/>
    <connection from="-229915458#1" to="229915458#1" fromLane="0" toLane="0"/>

    <connection from="-26792666#0" to="7128311" fromLane="0" toLane="0"/>
    <connection from="-26792666#0" to="7128339" fromLane="0" toLane="0"/>
    <connection from="-26792666#0" to="26792666#0" fromLane="0" toLane="0"/>

    <connection from="-26792666#1" to="-26792666#0" fromLane="0" toLane="0"/>
    <connection from="-26792666#1" to="-28118135#2" fromLane="0" toLane="0"/>
    <connection from="-26792666#1" to="26792666#1" fromLane="0" toLane="0"/>

    <connection from="-276658162" to="-131426324" fromLane="0" toLane="0"/>
    <connection from="-276658162" to="-131426324" fromLane="1" toLane="1"/>

    <connection from="-27993169#0" to="-179577972" fromLane="0" toLane="0"/>
    <connection from="-27993169#0" to="27993169#0" fromLane="0" toLane="0"/>

    <connection from="-27993169#1" to="-27993169#0" fromLane="0" toLane="0"/>
    <connection from="-27993169#1" to="179577972" fromLane="0" toLane="0"/>
    <connection from="-27993169#1" to="27993169#1" fromLane="0" toLane="0"/>

    <connection from="-27993169#2" to="-153190730" fromLane="0" toLane="0"/>
    <connection from="-27993169#2" to="-27993169#1" fromLane="0" toLane="0"/>
    <connection from="-27993169#2" to="27993169#2" fromLane="0" toLane="0"/>

    <connection from="-28118135#0" to="28118135#2" fromLane="0" toLane="0"/>
    <connection from="-28118135#0" to="-28118135#1" fromLane="0" toLane="0"/>
    <connection from="-28118135#0" to="28118135#0" fromLane="0" toLane="0"/>

    <connection from="-28118135#1" to="-28118135#0" fromLane="0" toLane="0"/>
    <connection from="-28118135#1" to="28118135#1" fromLane="0" toLane="0"/>

    <connection from="-28118135#2" to="-28118135#1" fromLane="0" toLane="0"/>
    <connection from="-28118135#2" to="28118135#0" fromLane="0" toLane="0"/>
    <connection from="-28118135#2" to="28118135#2" fromLane="0" toLane="0"/>

    <connection from="-31138878#0" to="-7126980" fromLane="0" toLane="0"/>
    <connection from="-31138878#0" to="-7126848#1" fromLane="0" toLane="0"/>
    <connection from="-31138878#0" to="31138878#0" fromLane="0" toLane="0"/>

    <connection from="-31138878#1" to="7126838" fromLane="0" toLane="0"/>
    <connection from="-31138878#1" to="-31138878#0" fromLane="0" toLane="0"/>
    <connection from="-31138878#1" to="31138878#1" fromLane="0" toLane="0"/>

    <connection from="-31138878#2" to="-31138878#1" fromLane="0" toLane="0"/>
    <connection from="-31138878#2" to="31138878#2" fromLane="0" toLane="0"/>

    <connection from="-31138878#3" to="-31138878#2" fromLane="0" toLane="0"/>
    <connection from="-31138878#3" to="31138878#3" fromLane="0" toLane="0"/>

    <connection from="-350131854#0" to="27809499" fromLane="0" toLane="0"/>
    <connection from="-350131854#0" to="350131854#0" fromLane="0" toLane="0"/>

    <connection from="-350131854#1" to="-350131854#0" fromLane="0" toLane="0"/>
    <connection from="-350131854#1" to="350131854#1" fromLane="0" toLane="0"/>

    <connection from="-350131856#0" to="-457496616#1" fromLane="0" toLane="0"/>
    <connection from="-350131856#0" to="350131856#0" fromLane="0" toLane="0"/>

    <connection from="-350131856#1" to="-552622786" fromLane="0" toLane="0"/>
    <connection from="-350131856#1" to="-350131856#0" fromLane="0" toLane="0"/>
    <connection from="-350131856#1" to="350131856#1" fromLane="0" toLane="0"/>

    <connection from="-377073560#0" to="-40271394#1" fromLane="0" toLane="0"/>
    <connection from="-377073560#0" to="-40271394#1" fromLane="1" toLane="1"/>
    <connection from="-377073560#0" to="377073560#0" fromLane="1" toLane="1"/>

    <connection from="-377073560#1" to="-350131856#1" fromLane="0" toLane="0"/>
    <connection from="-377073560#1" to="-377073560#0" fromLane="0" toLane="0"/>
    <connection from="-377073560#1" to="-377073560#0" fromLane="1" toLane="1"/>
    <connection from="-377073560#1" to="377073560#1" fromLane="1" toLane="1"/>

    <connection from="-40271394#0" to="40271394#0" fromLane="1" toLane="1"/>

    <connection from="-40271394#1" to="-40271394#0" fromLane="0" toLane="0"/>
    <connection from="-40271394#1" to="-40271394#0" fromLane="1" toLane="1"/>
    <connection from="-40271394#1" to="40271394#1" fromLane="1" toLane="1"/>

    <connection from="-40349308" to="7127046#6" fromLane="0" toLane="0"/>
    <connection from="-40349308" to="40349308" fromLane="0" toLane="0"/>

    <connection from="-424084911" to="-424084916#1" fromLane="0" toLane="0"/>
    <connection from="-424084911" to="424084911" fromLane="0" toLane="0"/>

    <connection from="-424084915#0" to="500479829#0" fromLane="0" toLane="0"/>
    <connection from="-424084915#0" to="424084915#0" fromLane="0" toLane="0"/>

    <connection from="-424084915#1" to="-424084915#0" fromLane="0" toLane="0"/>
    <connection from="-424084915#1" to="-200186206#0" fromLane="0" toLane="0"/>
    <connection from="-424084915#1" to="200186206#1" fromLane="0" toLane="0"/>
    <connection from="-424084915#1" to="424084915#1" fromLane="0" toLane="0"/>

    <connection from="-424084916#0" to="7127203" fromLane="0" toLane="0"/>
    <connection from="-424084916#0" to="424084916#0" fromLane="0" toLane="0"/>

    <connection from="-424084916#1" to="-200186208#0" fromLane="0" toLane="0"/>
    <connection from="-424084916#1" to="-424084916#0" fromLane="0" toLane="0"/>
    <connection from="-424084916#1" to="200186208#1" fromLane="0" toLane="0"/>
    <connection from="-424084916#1" to="424084916#1" fromLane="0" toLane="0"/>

    <connection from="-44683385" to="44683385" fromLane="0" toLane="0"/>

    <connection from="-457496616#0" to="-350131854#1" fromLane="0" toLane="0"/>
    <connection from="-457496616#0" to="457496616#0" fromLane="0" toLane="0"/>

    <connection from="-457496616#1" to="-552622789" fromLane="0" toLane="0"/>
    <connection from="-457496616#1" to="-457496616#0" fromLane="0" toLane="0"/>
    <connection from="-457496616#1" to="457496616#1" fromLane="0" toLane="0"/>

    <connection from="-464918869" to="464918870" fromLane="0" toLane="0"/>
    <connection from="-464918869" to="464918869" fromLane="0" toLane="0"/>

    <connection from="-47252499" to="214164532" fromLane="0" toLane="0"/>
    <connection from="-47252499" to="47252499" fromLane="0" toLane="0"/>

    <connection from="-47252525#0" to="107206970#1" fromLane="0" toLane="0"/>
    <connection from="-47252525#0" to="47252525#0" fromLane="0" toLane="0"/>

    <connection from="-47252525#1" to="-47252525#0" fromLane="0" toLane="0"/>
    <connection from="-47252525#1" to="47252525#1" fromLane="0" toLane="0"/>

    <connection from="-47252537" to="377073584#1" fromLane="0" toLane="0"/>
    <connection from="-47252537" to="47252537" fromLane="0" toLane="0"/>

    <connection from="-47307829" to="424877570" fromLane="0" toLane="0"/>
    <connection from="-47307829" to="47307829" fromLane="0" toLane="0"/>

    <connection from="-47448001" to="26792566" fromLane="0" toLane="0"/>
    <connection from="-47448001" to="143878765" fromLane="0" toLane="1"/>
    <connection from="-47448001" to="47448001" fromLane="0" toLane="0"/>

    <connection from="-478356158" to="-377073560#1" fromLane="0" toLane="0"/>
    <connection from="-478356158" to="-377073560#1" fromLane="1" toLane="1"/>
    <connection from="-478356158" to="478356156" fromLane="1" toLane="0"/>
    <connection from="-478356158" to="478356158" fromLane="1" toLane="1"/>

    <connection from="-478356159#0" to="7127056" fromLane="0" toLane="0"/>
    <connection from="-478356159#0" to="-7127062#1" fromLane="0" toLane="0"/>
    <connection from="-478356159#0" to="478356159#0" fromLane="0" toLane="0"/>

    <connection from="-478356159#1" to="-478356159#0" fromLane="0" toLane="0"/>
    <connection from="-478356159#1" to="478356159#1" fromLane="0" toLane="0"/>

    <connection from="-478356160" to="-7127056" fromLane="0" toLane="0"/>
    <connection from="-478356160" to="7127303#0" fromLane="0" toLane="0"/>
    <connection from="-478356160" to="478356160" fromLane="0" toLane="0"/>

    <connection from="-47987369" to="-7127102" fromLane="0" toLane="0"/>
    <connection from="-47987369" to="47987369" fromLane="0" toLane="0"/>

    <connection from="-500479831" to="478356162#1" fromLane="0" toLane="0"/>
    <connection from="-500479831" to="500479831" fromLane="0" toLane="0"/>

    <connection from="-501250971" to="7127329#1" fromLane="0" toLane="0"/>
    <connection from="-501250971" to="501250971" fromLane="0" toLane="0"/>

    <connection from="-511459955" to="7128200#1" fromLane="0" toLane="0"/>
    <connection from="-511459955" to="-7128200#0" fromLane="0" toLane="0"/>
    <connection from="-511459955" to="511459955" fromLane="0" toLane="0"/>

    <connection from="-534984554" to="7126989#1" fromLane="0" toLane="0"/>
    <connection from="-534984554" to="534984554" fromLane="0" toLane="0"/>

    <connection from="-552622784" to="552622781#0" fromLane="0" toLane="0"/>
    <connection from="-552622784" to="552622781#0" fromLane="1" toLane="1"/>
    <connection from="-552622784" to="552622784" fromLane="1" toLane="1"/>

    <connection from="-552622786" to="557433238#2" fromLane="0" toLane="0"/>
    <connection from="-552622786" to="552622786" fromLane="0" toLane="0"/>

    <connection from="-552622789" to="552622789" fromLane="0" toLane="0"/>

    <connection from="-575553787" to="575553787" fromLane="0" toLane="0"/>

    <connection from="-60892298#0" to="-60892298#2" fromLane="0" toLane="0"/>
    <connection from="-60892298#0" to="60892298#0" fromLane="0" toLane="0"/>

    <connection from="-60892298#1" to="-60892298#0" fromLane="0" toLane="0"/>
    <connection from="-60892298#1" to="-26792666#1" fromLane="0" toLane="0"/>
    <connection from="-60892298#1" to="60892298#1" fromLane="0" toLane="0"/>

    <connection from="-60892298#2" to="-60892298#1" fromLane="0" toLane="0"/>
    <connection from="-60892298#2" to="229915458#0" fromLane="0" toLane="0"/>
    <connection from="-60892298#2" to="60892298#2" fromLane="0" toLane="0"/>

    <connection from="-70462728" to="210727694#3" fromLane="0" toLane="0"/>
    <connection from="-70462728" to="70462728" fromLane="0" toLane="0"/>

    <connection from="-70462729" to="131357975" fromLane="0" toLane="0"/>
    <connection from="-70462729" to="70462729" fromLane="0" toLane="0"/>

    <connection from="-70462730#0" to="131357988#0" fromLane="0" toLane="0"/>
    <connection from="-70462730#0" to="70462730#0" fromLane="0" toLane="0"/>

    <connection from="-70462730#1" to="-70462730#0" fromLane="0" toLane="0"/>
    <connection from="-70462730#1" to="26792428#1" fromLane="0" toLane="1"/>
    <connection from="-70462730#1" to="70462730#1" fromLane="0" toLane="0"/>

    <connection from="-70462731" to="210727694#0" fromLane="0" toLane="0"/>
    <connection from="-70462731" to="70462731" fromLane="0" toLane="0"/>

    <connection from="-7126647" to="22376316" fromLane="0" toLane="0"/>
    <connection from="-7126647" to="7126647" fromLane="0" toLane="0"/>

    <connection from="-7126838" to="-31138878#0" fromLane="0" toLane="0"/>
    <connection from="-7126838" to="31138878#1" fromLane="0" toLane="0"/>
    <connection from="-7126838" to="7126838" fromLane="0" toLane="0"/>

    <connection from="-7126848#0" to="-7126647" fromLane="0" toLane="0"/>
    <connection from="-7126848#0" to="-195578175#2" fromLane="0" toLane="0"/>
    <connection from="-7126848#0" to="7126848#0" fromLane="0" toLane="0"/>

    <connection from="-7126848#1" to="-7126848#0" fromLane="0" toLane="0"/>
    <connection from="-7126848#1" to="7126848#1" fromLane="0" toLane="0"/>

    <connection from="-7126891" to="-534984554" fromLane="0" toLane="0"/>
    <connection from="-7126891" to="7126891" fromLane="0" toLane="0"/>

    <connection from="-7126980" to="7127388" fromLane="0" toLane="0"/>
    <connection from="-7126980" to="7126980" fromLane="0" toLane="0"/>

    <connection from="-7127037" to="7127037" fromLane="0" toLane="0"/>

    <connection from="-7127044" to="7128350#0" fromLane="0" toLane="0"/>
    <connection from="-7127044" to="-7128222" fromLane="0" toLane="0"/>
    <connection from="-7127044" to="7127044" fromLane="0" toLane="0"/>

    <connection from="-7127055#0" to="7127313#3" fromLane="0" toLane="0"/>
    <connection from="-7127055#0" to="-7127313#2" fromLane="0" toLane="0"/>
    <connection from="-7127055#0" to="7127055#0" fromLane="0" toLane="0"/>

    <connection from="-7127055#1" to="-7127055#0" fromLane="0" toLane="0"/>
    <connection from="-7127055#1" to="7127055#1" fromLane="0" toLane="0"/>

    <connection from="-7127056" to="-7127062#1" fromLane="0" toLane="0"/>
    <connection from="-7127056" to="478356159#0" fromLane="0" toLane="0"/>
    <connection from="-7127056" to="7127056" fromLane="0" toLane="0"/>

    <connection from="-7127058" to="-7127323#2" fromLane="0" toLane="0"/>
    <connection from="-7127058" to="7127058" fromLane="0" toLane="0"/>

    <connection from="-7127062#0" to="7127115" fromLane="0" toLane="0"/>
    <connection from="-7127062#0" to="-214164533" fromLane="0" toLane="0"/>
    <connection from="-7127062#0" to="7127062#0" fromLane="0" toLane="0"/>

    <connection from="-7127062#1" to="-7127108" fromLane="0" toLane="0"/>
    <connection from="-7127062#1" to="-7127062#0" fromLane="0" toLane="0"/>
    <connection from="-7127062#1" to="7127062#1" fromLane="0" toLane="0"/>

    <connection from="-7127063" to="-40349308" fromLane="0" toLane="0"/>
    <connection from="-7127063" to="-7127065#3" fromLane="0" toLane="0"/>
    <connection from="-7127063" to="7127226#0" fromLane="0" toLane="0"/>
    <connection from="-7127063" to="7127063" fromLane="0" toLane="0"/>

    <connection from="-7127064" to="7127073#0" fromLane="0" toLane="0"/>
    <connection from="-7127064" to="7127064" fromLane="0" toLane="0"/>

    <connection from="-7127065#0" to="7127311#0" fromLane="0" toLane="0"/>
    <connection from="-7127065#0" to="-148641162#1" fromLane="0" toLane="0"/>
    <connection from="-7127065#0" to="7127065#0" fromLane="0" toLane="0"/>

    <connection from="-7127065#1" to="-7127306#1" fromLane="0" toLane="0"/>
    <connection from="-7127065#1" to="-7127065#0" fromLane="0" toLane="0"/>
    <connection from="-7127065#1" to="7127324#0" fromLane="0" toLane="0"/>
    <connection from="-7127065#1" to="7127065#1" fromLane="0" toLane="0"/>

    <connection from="-7127065#2" to="-7127065#1" fromLane="0" toLane="0"/>
    <connection from="-7127065#2" to="7127069#0" fromLane="0" toLane="0"/>
    <connection from="-7127065#2" to="7127065#2" fromLane="0" toLane="0"/>

    <connection from="-7127065#3" to="-7127194#2" fromLane="0" toLane="0"/>
    <connection from="-7127065#3" to="-7127065#2" fromLane="0" toLane="0"/>
    <connection from="-7127065#3" to="7127087#0" fromLane="0" toLane="0"/>
    <connection from="-7127065#3" to="7127065#3" fromLane="0" toLane="0"/>

    <connection from="-7127069#0" to="7127065#2" fromLane="0" toLane="0"/>
    <connection from="-7127069#0" to="-7127065#1" fromLane="0" toLane="0"/>
    <connection from="-7127069#0" to="7127069#0" fromLane="0" toLane="0"/>

    <connection from="-7127069#1" to="7127082#1" fromLane="0" toLane="0"/>
    <connection from="-7127069#1" to="-7127069#0" fromLane="0" toLane="0"/>
    <connection from="-7127069#1" to="-7127082#0" fromLane="0" toLane="0"/>
    <connection from="-7127069#1" to="7127069#1" fromLane="0" toLane="0"/>

    <connection from="-7127071#0" to="7127323#0" fromLane="0" toLane="0"/>
    <connection from="-7127071#0" to="-7127299#3" fromLane="0" toLane="0"/>
    <connection from="-7127071#0" to="-7127156#2" fromLane="0" toLane="0"/>
    <connection from="-7127071#0" to="7127071#0" fromLane="0" toLane="0"/>

    <connection from="-7127071#1" to="-7127071#0" fromLane="0" toLane="0"/>
    <connection from="-7127071#1" to="-7127075" fromLane="0" toLane="0"/>
    <connection from="-7127071#1" to="7127071#1" fromLane="0" toLane="0"/>

    <connection from="-7127071#2" to="7127314#0" fromLane="0" toLane="0"/>
    <connection from="-7127071#2" to="-7127071#1" fromLane="0" toLane="0"/>
    <connection from="-7127071#2" to="7127071#2" fromLane="0" toLane="0"/>

    <connection from="-7127071#3" to="-7127071#2" fromLane="0" toLane="0"/>
    <connection from="-7127071#3" to="7127071#3" fromLane="0" toLane="0"/>

    <connection from="-7127073#0" to="7127064" fromLane="0" toLane="0"/>
    <connection from="-7127073#0" to="7127073#0" fromLane="0" toLane="0"/>

    <connection from="-7127073#1" to="-7127073#0" fromLane="0" toLane="0"/>
    <connection from="-7127073#1" to="-27993169#2" fromLane="0" toLane="0"/>
    <connection from="-7127073#1" to="7127073#1" fromLane="0" toLane="0"/>

    <connection from="-7127073#2" to="-7127073#1" fromLane="0" toLane="0"/>
    <connection from="-7127073#2" to="7127073#2" fromLane="0" toLane="0"/>

    <connection from="-7127075" to="-7127279#0" fromLane="0" toLane="0"/>
    <connection from="-7127075" to="7127279#1" fromLane="0" toLane="0"/>
    <connection from="-7127075" to="7127075" fromLane="0" toLane="0"/>

    <connection from="-7127077" to="-7127299#1" fromLane="0" toLane="0"/>
    <connection from="-7127077" to="7127299#2" fromLane="0" toLane="0"/>
    <connection from="-7127077" to="7127077" fromLane="0" toLane="0"/>

    <connection from="-7127082#0" to="-7127324#1" fromLane="0" toLane="0"/>
    <connection from="-7127082#0" to="-7127201#2" fromLane="0" toLane="0"/>
    <connection from="-7127082#0" to="7127324#2" fromLane="0" toLane="0"/>
    <connection from="-7127082#0" to="7127082#0" fromLane="0" toLane="0"/>

    <connection from="-7127082#1" to="-7127069#0" fromLane="0" toLane="0"/>
    <connection from="-7127082#1" to="-7127082#0" fromLane="0" toLane="0"/>
    <connection from="-7127082#1" to="7127069#1" fromLane="0" toLane="0"/>
    <connection from="-7127082#1" to="7127082#1" fromLane="0" toLane="0"/>

    <connection from="-7127082#2" to="-7127087#0" fromLane="0" toLane="0"/>
    <connection from="-7127082#2" to="-7127082#1" fromLane="0" toLane="0"/>
    <connection from="-7127082#2" to="7127087#1" fromLane="0" toLane="0"/>
    <connection from="-7127082#2" to="7127082#2" fromLane="0" toLane="0"/>

    <connection from="-7127087#0" to="7127065#3" fromLane="0" toLane="0"/>
    <connection from="-7127087#0" to="-7127194#2" fromLane="0" toLane="0"/>
    <connection from="-7127087#0" to="-7127065#2" fromLane="0" toLane="0"/>
    <connection from="-7127087#0" to="7127087#0" fromLane="0" toLane="0"/>

    <connection from="-7127087#1" to="7127082#2" fromLane="0" toLane="0"/>
    <connection from="-7127087#1" to="-7127087#0" fromLane="0" toLane="0"/>
    <connection from="-7127087#1" to="-7127082#1" fromLane="0" toLane="0"/>
    <connection from="-7127087#1" to="7127087#1" fromLane="0" toLane="0"/>

    <connection from="-7127088" to="-7127064" fromLane="0" toLane="0"/>
    <connection from="-7127088" to="-7127063" fromLane="0" toLane="0"/>
    <connection from="-7127088" to="7127088" fromLane="0" toLane="0"/>

    <connection from="-7127089#0" to="7127315#1" fromLane="0" toLane="0"/>
    <connection from="-7127089#0" to="7127089#0" fromLane="0" toLane="0"/>

    <connection from="-7127089#1" to="-7127089#0" fromLane="0" toLane="0"/>
    <connection from="-7127089#1" to="7127097" fromLane="0" toLane="0"/>
    <connection from="-7127089#1" to="7127089#1" fromLane="0" toLane="0"/>

    <connection from="-7127094" to="7127125#0" fromLane="0" toLane="0"/>
    <connection from="-7127094" to="-7127077" fromLane="0" toLane="0"/>
    <connection from="-7127094" to="7127094" fromLane="0" toLane="0"/>

    <connection from="-7127096" to="7127301#1" fromLane="0" toLane="0"/>
    <connection from="-7127096" to="-7127301#0" fromLane="0" toLane="0"/>
    <connection from="-7127096" to="7127096" fromLane="0" toLane="0"/>

    <connection from="-7127102" to="-47252525#1" fromLane="0" toLane="0"/>
    <connection from="-7127102" to="-7126838" fromLane="0" toLane="0"/>
    <connection from="-7127102" to="7127102" fromLane="0" toLane="0"/>

    <connection from="-7127108" to="-7127115" fromLane="0" toLane="0"/>
    <connection from="-7127108" to="7127108" fromLane="0" toLane="0"/>

    <connection from="-7127115" to="-214164533" fromLane="0" toLane="0"/>
    <connection from="-7127115" to="7127062#0" fromLane="0" toLane="0"/>
    <connection from="-7127115" to="7127115" fromLane="0" toLane="0"/>

    <connection from="-7127123" to="-177687070" fromLane="0" toLane="0"/>
    <connection from="-7127123" to="-478356158" fromLane="0" toLane="1"/>
    <connection from="-7127123" to="7127454" fromLane="0" toLane="1"/>
    <connection from="-7127123" to="7127123" fromLane="0" toLane="0"/>

    <connection from="-7127125#0" to="-7127077" fromLane="0" toLane="0"/>
    <connection from="-7127125#0" to="7127094" fromLane="0" toLane="0"/>