<?xml version="1.0" encoding="UTF-8"?>

<!-- generated on 6/25/2018 2:08:38 PM by Netedit Version 0.32.0
<?xml version="1.0" encoding="UTF-8"?>

<configuration xmlns:xsi="http://www.w3.org/2001/XMLSchema-instance" xsi:noNamespaceSchemaLocation="http://sumo.dlr.de/xsd/netconvertConfiguration.xsd">

    <input>
        <sumo-net-file value="C:\Users\abeld\Downloads\Intersection\Normal%20Interchange\normal%20interchange.net.xml"/>
    </input>

    <output>
        <output-file value="C:\Users\abeld\Downloads\Intersection\Normal%20Interchange\normal%20interchange.net.xml"/>
    </output>

    <processing>
        <no-turnarounds value="true"/>
        <offset.disable-normalization value="true"/>
        <lefthand value="false"/>
        <junctions.corner-detail value="0"/>
        <rectangular-lane-cut value="false"/>
        <walkingareas value="false"/>
    </processing>

</configuration>
-->

<net version="0.27" xmlns:xsi="http://www.w3.org/2001/XMLSchema-instance" xsi:noNamespaceSchemaLocation="http://sumo.dlr.de/xsd/net_file.xsd">

    <location netOffset="0.00,0.00" convBoundary="330.00,-460.00,1020.00,160.00" origBoundary="-10000000000.00,-10000000000.00,10000000000.00,10000000000.00" projParameter="!"/>

    <edge id=":east-light1_0" function="internal">
        <lane id=":east-light1_0_0" index="0" speed="13.89" length="9.21" shape="721.48,-118.35 712.27,-118.35"/>
    </edge>
    <edge id=":east-light1_1" function="internal">
        <lane id=":east-light1_1_0" index="0" speed="13.89" length="34.84" shape="721.48,-118.35 715.24,-120.65 706.07,-125.89 697.03,-131.62 691.20,-135.36"/>
    </edge>
    <edge id=":east-light1_2" function="internal">
        <lane id=":east-light1_2_0" index="0" speed="13.89" length="34.78" shape="721.48,-118.35 715.49,-121.02 706.90,-127.12 698.49,-133.78 693.07,-138.14"/>
    </edge>
    <edge id=":east-light1_3" function="internal">
        <lane id=":east-light1_3_0" index="0" speed="13.89" length="26.43" shape="721.48,-118.35 716.81,-120.57 711.16,-125.71 705.78,-131.52 701.94,-135.73"/>
    </edge>
    <edge id=":east-light2_0" function="internal">
        <lane id=":east-light2_0_0" index="0" speed="13.89" length="18.99" shape="721.50,-108.35 717.16,-107.95 712.14,-106.99 707.13,-105.84 702.85,-104.89"/>
    </edge>
    <edge id=":east-light2_1" function="internal">
        <lane id=":east-light2_1_0" index="0" speed="13.89" length="19.32" shape="721.50,-108.35 702.18,-108.35"/>
    </edge>
    <edge id=":east-light2_2" function="internal">
        <lane id=":east-light2_2_0" index="0" speed="13.89" length="19.31" shape="721.50,-108.35 717.11,-108.75 711.97,-109.71 706.85,-110.86 702.52,-111.81"/>
    </edge>
    <edge id=":east-light3_0" function="internal">
        <lane id=":east-light3_0_0" index="0" speed="13.89" length="5.06" shape="724.82,-98.35 723.44,-98.16 722.44,-97.57 721.85,-96.61 721.65,-95.25"/>
    </edge>
    <edge id=":east-light3_1" function="internal">
        <lane id=":east-light3_1_0" index="0" speed="13.89" length="6.27" shape="724.82,-98.35 718.55,-98.35"/>
    </edge>
    <edge id=":east-light3_2" function="internal">
        <lane id=":east-light3_2_0" index="0" speed="13.89" length="10.90" shape="720.47,-106.06 721.07,-103.00 721.43,-100.69 721.60,-98.36 721.65,-95.25"/>
    </edge>
    <edge id=":east-light3_3" function="internal">
        <lane id=":east-light3_3_0" index="0" speed="13.89" length="8.96" shape="720.47,-106.06 720.93,-102.69 720.76,-100.28 719.97,-98.83 718.55,-98.35"/>
    </edge>
    <edge id=":east-light3_4" function="internal">
        <lane id=":east-light3_4_0" index="0" speed="13.89" length="5.19" shape="717.09,-103.67 719.08,-102.12 720.51,-100.20 720.60,-99.95"/>
    </edge>
    <edge id=":east-light3_5" function="internal">
        <lane id=":east-light3_5_0" index="0" speed="13.89" length="5.95" shape="717.09,-103.67 720.50,-101.34 721.66,-99.95"/>
    </edge>
    <edge id=":east-light3_6" function="internal">
        <lane id=":east-light3_6_0" index="0" speed="13.89" length="4.85" shape="720.60,-99.95 721.36,-97.91 721.65,-95.25"/>
    </edge>
    <edge id=":east-light3_7" function="internal">
        <lane id=":east-light3_7_0" index="0" speed="13.89" length="4.25" shape="721.66,-99.95 721.89,-99.68 721.24,-98.68 718.55,-98.35"/>
    </edge>
    <edge id=":gneJ10_0" function="internal">
        <lane id=":gneJ10_0_0" index="0" speed="13.89" length="0.10" shape="510.00,-131.65 510.00,-131.65"/>
    </edge>
    <edge id=":gneJ100_0" function="internal">
        <lane id=":gneJ100_0_0" index="0" speed="13.89" length="0.10" shape="701.65,-430.00 701.65,-430.00"/>
    </edge>
    <edge id=":gneJ101_0" function="internal">
        <lane id=":gneJ101_0_0" index="0" speed="13.89" length="0.10" shape="711.65,-430.00 711.65,-430.00"/>
    </edge>
    <edge id=":gneJ103_0" function="internal">
        <lane id=":gneJ103_0_0" index="0" speed="13.89" length="0.10" shape="721.65,-430.00 721.65,-430.00"/>
    </edge>
    <edge id=":gneJ104_0" function="internal">
        <lane id=":gneJ104_0_0" index="0" speed="13.89" length="13.11" shape="988.52,-151.65 1001.63,-151.65"/>
    </edge>
    <edge id=":gneJ104_1" function="internal">
        <lane id=":gneJ104_1_0" index="0" speed="13.89" length="15.68" shape="988.52,-151.65 992.30,-151.18 996.10,-150.04 999.85,-148.60 1003.49,-147.24"/>
    </edge>
    <edge id=":gneJ104_2" function="internal">
        <lane id=":gneJ104_2_0" index="0" speed="13.89" length="15.65" shape="988.52,-151.65 992.13,-150.85 995.53,-148.88 998.77,-146.40 1001.92,-144.04"/>
    </edge>
    <edge id=":gneJ105_0" function="internal">
        <lane id=":gneJ105_0_0" index="0" speed="13.89" length="12.62" shape="988.51,-141.65 991.83,-141.99 994.60,-142.85 997.34,-144.01 1000.51,-145.24"/>
    </edge>
    <edge id=":gneJ105_1" function="internal">
        <lane id=":gneJ105_1_0" index="0" speed="13.89" length="13.12" shape="988.51,-141.65 1001.63,-141.65"/>
    </edge>
    <edge id=":gneJ105_2" function="internal">
        <lane id=":gneJ105_2_0" index="0" speed="13.89" length="13.12" shape="988.51,-141.65 991.91,-141.31 994.87,-140.45 997.79,-139.29 1001.04,-138.06"/>
    </edge>
    <edge id=":gneJ106_0" function="internal">
        <lane id=":gneJ106_0_0" index="0" speed="13.89" length="15.10" shape="987.52,-131.65 991.06,-132.40 994.30,-134.26 997.38,-136.64 1000.46,-138.95"/>
    </edge>
    <edge id=":gneJ106_1" function="internal">
        <lane id=":gneJ106_1_0" index="0" speed="13.89" length="15.15" shape="987.52,-131.65 991.23,-132.07 994.87,-133.11 998.46,-134.44 1002.03,-135.75"/>
    </edge>
    <edge id=":gneJ106_2" function="internal">
        <lane id=":gneJ106_2_0" index="0" speed="13.89" length="13.58" shape="987.52,-131.65 1001.09,-131.65"/>
    </edge>
    <edge id=":gneJ107_0" function="internal">
        <lane id=":gneJ107_0_0" index="0" speed="13.89" length="0.10" shape="990.00,-118.35 990.00,-118.35"/>
    </edge>
    <edge id=":gneJ108_0" function="internal">
        <lane id=":gneJ108_0_0" index="0" speed="13.89" length="0.10" shape="990.00,-108.35 990.00,-108.35"/>
    </edge>
    <edge id=":gneJ109_0" function="internal">
        <lane id=":gneJ109_0_0" index="0" speed="13.89" length="0.10" shape="990.00,-98.35 990.00,-98.35"/>
    </edge>
    <edge id=":gneJ11_0" function="internal">
        <lane id=":gneJ11_0_0" index="0" speed="13.89" length="12.69" shape="637.15,-131.65 638.58,-132.13 640.71,-133.58 643.53,-136.00 647.06,-139.39"/>
    </edge>
    <edge id=":gneJ11_1" function="internal">
        <lane id=":gneJ11_1_0" index="0" speed="13.89" length="13.11" shape="637.15,-131.65 640.51,-132.08 643.37,-133.20 646.12,-134.75 649.18,-136.44"/>
    </edge>
    <edge id=":gneJ11_2" function="internal">
        <lane id=":gneJ11_2_0" index="0" speed="13.89" length="10.73" shape="637.15,-131.65 647.89,-131.65"/>
    </edge>
    <edge id=":gneJ16_0" function="internal">
        <lane id=":gneJ16_0_0" index="0" speed="13.89" length="0.10" shape="360.00,-141.65 360.00,-141.65"/>
    </edge>
    <edge id=":gneJ17_0" function="internal">
        <lane id=":gneJ17_0_0" index="0" speed="13.89" length="0.10" shape="510.00,-141.65 510.00,-141.65"/>
    </edge>
    <edge id=":gneJ18_0" function="internal">
        <lane id=":gneJ18_0_0" index="0" speed="13.89" length="9.47" shape="638.51,-141.65 641.21,-141.94 642.95,-142.72 644.59,-143.90 647.01,-145.35"/>
    </edge>
    <edge id=":gneJ18_1" function="internal">
        <lane id=":gneJ18_1_0" index="0" speed="13.89" length="10.16" shape="638.51,-141.65 648.67,-141.65"/>
    </edge>
    <edge id=":gneJ18_2" function="internal">
        <lane id=":gneJ18_2_0" index="0" speed="13.89" length="10.19" shape="638.51,-141.65 641.44,-141.39 643.35,-140.64 645.16,-139.47 647.79,-137.95"/>
    </edge>
    <edge id=":gneJ21_0" function="internal">
        <lane id=":gneJ21_0_0" index="0" speed="13.89" length="0.10" shape="360.00,-151.65 360.00,-151.65"/>
    </edge>
    <edge id=":gneJ22_0" function="internal">
        <lane id=":gneJ22_0_0" index="0" speed="13.89" length="0.10" shape="510.00,-151.65 510.00,-151.65"/>
    </edge>
    <edge id=":gneJ23_0" function="internal">
        <lane id=":gneJ23_0_0" index="0" speed="13.89" length="10.15" shape="638.52,-151.65 648.67,-151.65"/>
    </edge>
    <edge id=":gneJ23_1" function="internal">
        <lane id=":gneJ23_1_0" index="0" speed="13.89" length="13.88" shape="638.52,-151.65 641.97,-151.12 645.03,-149.80 647.98,-148.06 651.14,-146.28"/>
    </edge>
    <edge id=":gneJ23_2" function="internal">
        <lane id=":gneJ23_2_0" index="0" speed="13.89" length="13.51" shape="638.52,-151.65 639.99,-151.13 642.22,-149.57 645.23,-146.97 649.01,-143.32"/>
    </edge>
    <edge id=":gneJ24_0" function="internal">
        <lane id=":gneJ24_0_0" index="0" speed="13.89" length="12.69" shape="652.94,-139.39 656.47,-136.00 659.29,-133.58 661.42,-132.13 662.85,-131.65"/>
    </edge>
    <edge id=":gneJ24_1" function="internal">
        <lane id=":gneJ24_1_0" index="0" speed="13.89" length="13.11" shape="650.82,-136.44 653.88,-134.75 656.63,-133.20 659.49,-132.08 662.85,-131.65"/>
    </edge>
    <edge id=":gneJ24_2" function="internal">
        <lane id=":gneJ24_2_0" index="0" speed="13.89" length="10.73" shape="652.11,-131.65 662.85,-131.65"/>
    </edge>
    <edge id=":gneJ25_0" function="internal">
        <lane id=":gneJ25_0_0" index="0" speed="13.89" length="10.19" shape="652.99,-145.35 655.62,-143.83 657.43,-142.66 659.34,-141.91 662.27,-141.65"/>
    </edge>
    <edge id=":gneJ25_1" function="internal">
        <lane id=":gneJ25_1_0" index="0" speed="13.89" length="10.93" shape="651.33,-141.65 662.27,-141.65"/>
    </edge>
    <edge id=":gneJ25_2" function="internal">
        <lane id=":gneJ25_2_0" index="0" speed="13.89" length="10.90" shape="652.21,-137.95 654.96,-139.47 657.04,-140.64 659.21,-141.39 662.27,-141.65"/>
    </edge>
    <edge id=":gneJ26_0" function="internal">
        <lane id=":gneJ26_0_0" index="0" speed="13.89" length="10.15" shape="651.33,-151.65 661.48,-151.65"/>
    </edge>
    <edge id=":gneJ26_1" function="internal">
        <lane id=":gneJ26_1_0" index="0" speed="13.89" length="13.88" shape="648.86,-146.28 652.02,-148.06 654.97,-149.80 658.03,-151.12 661.48,-151.65"/>
    </edge>
    <edge id=":gneJ26_2" function="internal">
        <lane id=":gneJ26_2_0" index="0" speed="13.89" length="10.07" shape="650.99,-143.32 654.77,-146.97 657.78,-149.57 658.47,-150.05"/>
    </edge>
    <edge id=":gneJ26_3" function="internal">
        <lane id=":gneJ26_3_0" index="0" speed="13.89" length="3.44" shape="658.47,-150.05 660.01,-151.13 661.48,-151.65"/>
    </edge>
    <edge id=":gneJ32_0" function="internal">
        <lane id=":gneJ32_0_0" index="0" speed="13.89" length="0.10" shape="668.35,-160.00 668.35,-160.00"/>
    </edge>
    <edge id=":gneJ33_0" function="internal">
        <lane id=":gneJ33_0_0" index="0" speed="13.89" length="10.28" shape="678.35,-144.47 678.35,-154.75"/>
    </edge>
    <edge id=":gneJ33_1" function="internal">
        <lane id=":gneJ33_1_0" index="0" speed="13.89" length="8.55" shape="678.35,-144.47 678.54,-147.61 679.13,-149.86 680.09,-151.20 681.45,-151.65"/>
    </edge>
    <edge id=":gneJ33_2" function="internal">
        <lane id=":gneJ33_2_0" index="0" speed="13.89" length="4.73" shape="682.11,-146.35 680.47,-147.94 679.29,-149.86 679.23,-150.05"/>
    </edge>
    <edge id=":gneJ33_3" function="internal">
        <lane id=":gneJ33_3_0" index="0" speed="13.89" length="5.16" shape="682.11,-146.35 679.42,-148.67 678.58,-150.05"/>
    </edge>
    <edge id=":gneJ33_6" function="internal">
        <lane id=":gneJ33_6_0" index="0" speed="13.89" length="4.81" shape="679.23,-150.05 678.59,-152.13 678.35,-154.75"/>
    </edge>
    <edge id=":gneJ33_7" function="internal">
        <lane id=":gneJ33_7_0" index="0" speed="13.89" length="3.91" shape="678.58,-150.05 678.41,-150.33 679.09,-151.32 681.45,-151.65"/>
    </edge>
    <edge id=":gneJ33_4" function="internal">
        <lane id=":gneJ33_4_0" index="0" speed="13.89" length="5.00" shape="675.25,-151.65 676.61,-151.84 677.58,-152.43 678.16,-153.39 678.35,-154.75"/>
    </edge>
    <edge id=":gneJ33_5" function="internal">
        <lane id=":gneJ33_5_0" index="0" speed="13.89" length="6.20" shape="675.25,-151.65 681.45,-151.65"/>
    </edge>
    <edge id=":gneJ34_0" function="internal">
        <lane id=":gneJ34_0_0" index="0" speed="13.89" length="0.10" shape="678.35,-160.00 678.35,-160.00"/>
    </edge>
    <edge id=":gneJ35_0" function="internal">
        <lane id=":gneJ35_0_0" index="0" speed="13.89" length="22.25" shape="688.35,-132.50 688.35,-154.75"/>
    </edge>
    <edge id=":gneJ35_1" function="internal">
        <lane id=":gneJ35_1_0" index="0" speed="13.89" length="6.84" shape="692.14,-145.52 690.48,-147.52 689.30,-149.73 688.81,-151.39"/>
    </edge>
    <edge id=":gneJ35_4" function="internal">
        <lane id=":gneJ35_4_0" index="0" speed="13.89" length="3.40" shape="688.81,-151.39 688.59,-152.14 688.35,-154.75"/>
    </edge>
    <edge id=":gneJ35_2" function="internal">
        <lane id=":gneJ35_2_0" index="0" speed="13.89" length="5.04" shape="685.20,-151.65 686.58,-151.84 687.56,-152.43 688.15,-153.39 688.35,-154.75"/>
    </edge>
    <edge id=":gneJ35_3" function="internal">
        <lane id=":gneJ35_3_0" index="0" speed="13.89" length="22.19" shape="684.89,-132.85 685.84,-137.64 686.99,-143.76 687.95,-149.91 688.35,-154.75"/>
    </edge>
    <edge id=":gneJ36_0" function="internal">
        <lane id=":gneJ36_0_0" index="0" speed="13.89" length="0.10" shape="688.35,-160.00 688.35,-160.00"/>
    </edge>
    <edge id=":gneJ37_0" function="internal">
        <lane id=":gneJ37_0_0" index="0" speed="13.89" length="13.11" shape="668.35,-428.52 668.35,-441.63"/>
    </edge>
    <edge id=":gneJ37_1" function="internal">
        <lane id=":gneJ37_1_0" index="0" speed="13.89" length="15.68" shape="668.35,-428.52 668.82,-432.30 669.96,-436.10 671.40,-439.85 672.76,-443.49"/>
    </edge>
    <edge id=":gneJ37_2" function="internal">
        <lane id=":gneJ37_2_0" index="0" speed="13.89" length="15.65" shape="668.35,-428.52 669.15,-432.13 671.12,-435.53 673.60,-438.77 675.96,-441.92"/>
    </edge>
    <edge id=":gneJ38_0" function="internal">
        <lane id=":gneJ38_0_0" index="0" speed="13.89" length="12.62" shape="678.35,-428.51 678.01,-431.83 677.15,-434.60 675.99,-437.34 674.76,-440.51"/>
    </edge>
    <edge id=":gneJ38_1" function="internal">
        <lane id=":gneJ38_1_0" index="0" speed="13.89" length="13.12" shape="678.35,-428.51 678.35,-441.63"/>
    </edge>
    <edge id=":gneJ38_2" function="internal">
        <lane id=":gneJ38_2_0" index="0" speed="13.89" length="13.12" shape="678.35,-428.51 678.69,-431.91 679.55,-434.87 680.71,-437.79 681.94,-441.04"/>
    </edge>
    <edge id=":gneJ39_0" function="internal">
        <lane id=":gneJ39_0_0" index="0" speed="13.89" length="15.10" shape="688.35,-427.52 687.60,-431.06 685.74,-434.30 683.36,-437.38 681.05,-440.46"/>
    </edge>
    <edge id=":gneJ39_1" function="internal">
        <lane id=":gneJ39_1_0" index="0" speed="13.89" length="15.15" shape="688.35,-427.52 687.93,-431.23 686.89,-434.87 685.56,-438.46 684.25,-442.03"/>
    </edge>
    <edge id=":gneJ39_2" function="internal">
        <lane id=":gneJ39_2_0" index="0" speed="13.89" length="13.58" shape="688.35,-427.52 688.35,-441.09"/>
    </edge>
    <edge id=":gneJ40_0" function="internal">
        <lane id=":gneJ40_0_0" index="0" speed="13.89" length="12.69" shape="701.65,-182.85 702.13,-181.42 703.58,-179.29 706.00,-176.47 709.39,-172.94"/>
    </edge>
    <edge id=":gneJ40_1" function="internal">
        <lane id=":gneJ40_1_0" index="0" speed="13.89" length="13.11" shape="701.65,-182.85 702.08,-179.49 703.20,-176.63 704.75,-173.88 706.44,-170.82"/>
    </edge>
    <edge id=":gneJ40_2" function="internal">
        <lane id=":gneJ40_2_0" index="0" speed="13.89" length="10.73" shape="701.65,-182.85 701.65,-172.11"/>
    </edge>
    <edge id=":gneJ41_0" function="internal">
        <lane id=":gneJ41_0_0" index="0" speed="13.89" length="12.69" shape="709.39,-167.06 706.00,-163.53 703.58,-160.71 702.13,-158.58 701.65,-157.15"/>
    </edge>
    <edge id=":gneJ41_1" function="internal">
        <lane id=":gneJ41_1_0" index="0" speed="13.89" length="13.11" shape="706.44,-169.18 704.75,-166.12 703.20,-163.37 702.08,-160.51 701.65,-157.15"/>
    </edge>
    <edge id=":gneJ41_2" function="internal">
        <lane id=":gneJ41_2_0" index="0" speed="13.89" length="10.73" shape="701.65,-167.89 701.65,-157.15"/>
    </edge>
    <edge id=":gneJ43_0" function="internal">
        <lane id=":gneJ43_0_0" index="0" speed="13.89" length="10.19" shape="715.35,-167.01 713.83,-164.38 712.66,-162.57 711.91,-160.66 711.65,-157.73"/>
    </edge>
    <edge id=":gneJ43_1" function="internal">
        <lane id=":gneJ43_1_0" index="0" speed="13.89" length="10.93" shape="711.65,-168.67 711.65,-157.73"/>
    </edge>
    <edge id=":gneJ43_2" function="internal">
        <lane id=":gneJ43_2_0" index="0" speed="13.89" length="10.90" shape="707.95,-167.79 709.47,-165.04 710.64,-162.96 711.39,-160.79 711.65,-157.73"/>
    </edge>
    <edge id=":gneJ44_0" function="internal">
        <lane id=":gneJ44_0_0" index="0" speed="13.89" length="10.15" shape="721.65,-181.48 721.65,-171.33"/>
    </edge>
    <edge id=":gneJ44_1" function="internal">
        <lane id=":gneJ44_1_0" index="0" speed="13.89" length="13.88" shape="721.65,-181.48 721.12,-178.03 719.80,-174.97 718.06,-172.02 716.28,-168.86"/>
    </edge>
    <edge id=":gneJ44_2" function="internal">
        <lane id=":gneJ44_2_0" index="0" speed="13.89" length="13.51" shape="721.65,-181.48 721.13,-180.01 719.57,-177.78 716.97,-174.77 713.32,-170.99"/>
    </edge>
    <edge id=":gneJ45_0" function="internal">
        <lane id=":gneJ45_0_0" index="0" speed="13.89" length="10.15" shape="721.65,-168.67 721.65,-158.52"/>
    </edge>
    <edge id=":gneJ45_1" function="internal">
        <lane id=":gneJ45_1_0" index="0" speed="13.89" length="13.88" shape="716.28,-171.14 718.06,-167.98 719.80,-165.03 721.12,-161.97 721.65,-158.52"/>
    </edge>
    <edge id=":gneJ45_2" function="internal">
        <lane id=":gneJ45_2_0" index="0" speed="13.89" length="10.07" shape="713.32,-169.01 716.97,-165.23 719.57,-162.22 720.05,-161.53"/>
    </edge>
    <edge id=":gneJ45_3" function="internal">
        <lane id=":gneJ45_3_0" index="0" speed="13.89" length="3.44" shape="720.05,-161.53 721.13,-159.99 721.65,-158.52"/>
    </edge>
    <edge id=":gneJ51_0" function="internal">
        <lane id=":gneJ51_0_0" index="0" speed="13.89" length="5.04" shape="668.35,-115.20 668.16,-116.58 667.58,-117.56 666.61,-118.15 665.25,-118.35"/>
    </edge>
    <edge id=":gneJ51_1" function="internal">
        <lane id=":gneJ51_1_0" index="0" speed="13.89" length="22.19" shape="687.15,-114.89 682.36,-115.84 676.24,-116.99 670.09,-117.95 665.25,-118.35"/>
    </edge>
    <edge id=":gneJ51_2" function="internal">
        <lane id=":gneJ51_2_0" index="0" speed="13.89" length="22.25" shape="687.50,-118.35 665.25,-118.35"/>
    </edge>
    <edge id=":gneJ51_3" function="internal">
        <lane id=":gneJ51_3_0" index="0" speed="13.89" length="6.84" shape="674.48,-122.14 672.48,-120.48 670.27,-119.30 668.61,-118.81"/>
    </edge>
    <edge id=":gneJ51_4" function="internal">
        <lane id=":gneJ51_4_0" index="0" speed="13.89" length="3.40" shape="668.61,-118.81 667.86,-118.59 665.25,-118.35"/>
    </edge>
    <edge id=":gneJ52_0" function="internal">
        <lane id=":gneJ52_0_0" index="0" speed="13.89" length="0.10" shape="660.00,-118.35 660.00,-118.35"/>
    </edge>
    <edge id=":gneJ53_0" function="internal">
        <lane id=":gneJ53_0_0" index="0" speed="13.89" length="5.00" shape="668.35,-105.25 668.16,-106.61 667.58,-107.57 666.61,-108.16 665.25,-108.35"/>
    </edge>
    <edge id=":gneJ53_1" function="internal">
        <lane id=":gneJ53_1_0" index="0" speed="13.89" length="6.20" shape="668.35,-105.25 668.35,-111.45"/>
    </edge>
    <edge id=":gneJ53_2" function="internal">
        <lane id=":gneJ53_2_0" index="0" speed="13.89" length="10.27" shape="675.52,-108.35 665.25,-108.35"/>
    </edge>
    <edge id=":gneJ53_3" function="internal">
        <lane id=":gneJ53_3_0" index="0" speed="13.89" length="8.55" shape="675.52,-108.35 672.39,-108.54 670.14,-109.12 668.80,-110.09 668.35,-111.45"/>
    </edge>
    <edge id=":gneJ53_4" function="internal">
        <lane id=":gneJ53_4_0" index="0" speed="13.89" length="4.73" shape="673.64,-112.11 672.06,-110.46 670.14,-109.29 669.95,-109.23"/>
    </edge>
    <edge id=":gneJ53_5" function="internal">
        <lane id=":gneJ53_5_0" index="0" speed="13.89" length="5.16" shape="673.64,-112.11 671.33,-109.42 669.95,-108.58"/>
    </edge>
    <edge id=":gneJ53_6" function="internal">
        <lane id=":gneJ53_6_0" index="0" speed="13.89" length="4.81" shape="669.95,-109.23 667.87,-108.58 665.25,-108.35"/>
    </edge>
    <edge id=":gneJ53_7" function="internal">
        <lane id=":gneJ53_7_0" index="0" speed="13.89" length="3.91" shape="669.95,-108.58 669.67,-108.41 668.68,-109.09 668.35,-111.45"/>
    </edge>
    <edge id=":gneJ54_0" function="internal">
        <lane id=":gneJ54_0_0" index="0" speed="13.89" length="0.10" shape="660.00,-108.35 660.00,-108.35"/>
    </edge>
    <edge id=":gneJ56_0" function="internal">
        <lane id=":gneJ56_0_0" index="0" speed="13.89" length="0.10" shape="660.00,-98.35 660.00,-98.35"/>
    </edge>
    <edge id=":gneJ57_0" function="internal">
        <lane id=":gneJ57_0_0" index="0" speed="13.89" length="5.00" shape="721.65,-144.75 721.84,-143.39 722.42,-142.43 723.39,-141.84 724.75,-141.65"/>
    </edge>
    <edge id=":gneJ57_1" function="internal">
        <lane id=":gneJ57_1_0" index="0" speed="13.89" length="6.20" shape="721.65,-144.75 721.65,-138.55"/>
    </edge>
    <edge id=":gneJ57_2" function="internal">
        <lane id=":gneJ57_2_0" index="0" speed="13.89" length="10.27" shape="714.48,-141.65 724.75,-141.65"/>
    </edge>
    <edge id=":gneJ57_3" function="internal">
        <lane id=":gneJ57_3_0" index="0" speed="13.89" length="8.55" shape="714.48,-141.65 717.61,-141.46 719.86,-140.88 721.20,-139.91 721.65,-138.55"/>
    </edge>
    <edge id=":gneJ57_4" function="internal">
        <lane id=":gneJ57_4_0" index="0" speed="13.89" length="4.73" shape="716.35,-137.89 717.94,-139.54 719.86,-140.71 720.05,-140.77"/>
    </edge>
    <edge id=":gneJ57_5" function="internal">
        <lane id=":gneJ57_5_0" index="0" speed="13.89" length="5.16" shape="716.35,-137.89 718.67,-140.58 720.05,-141.42"/>
    </edge>
    <edge id=":gneJ57_6" function="internal">
        <lane id=":gneJ57_6_0" index="0" speed="13.89" length="4.81" shape="720.05,-140.77 722.13,-141.41 724.75,-141.65"/>
    </edge>
    <edge id=":gneJ57_7" function="internal">
        <lane id=":gneJ57_7_0" index="0" speed="13.89" length="3.91" shape="720.05,-141.42 720.33,-141.59 721.32,-140.91 721.65,-138.55"/>
    </edge>
    <edge id=":gneJ58_0" function="internal">
        <lane id=":gneJ58_0_0" index="0" speed="13.89" length="0.10" shape="730.00,-141.65 730.00,-141.65"/>
    </edge>
    <edge id=":gneJ59_0" function="internal">
        <lane id=":gneJ59_0_0" index="0" speed="13.89" length="0.10" shape="730.00,-151.65 730.00,-151.65"/>
    </edge>
    <edge id=":gneJ60_0" function="internal">
        <lane id=":gneJ60_0_0" index="0" speed="13.89" length="5.04" shape="721.65,-134.80 721.84,-133.42 722.42,-132.44 723.39,-131.85 724.75,-131.65"/>
    </edge>
    <edge id=":gneJ60_1" function="internal">
        <lane id=":gneJ60_1_0" index="0" speed="13.89" length="22.19" shape="702.85,-135.11 707.64,-134.16 713.76,-133.01 719.91,-132.05 724.75,-131.65"/>
    </edge>
    <edge id=":gneJ60_2" function="internal">
        <lane id=":gneJ60_2_0" index="0" speed="13.89" length="22.25" shape="702.50,-131.65 724.75,-131.65"/>
    </edge>
    <edge id=":gneJ60_3" function="internal">
        <lane id=":gneJ60_3_0" index="0" speed="13.89" length="6.84" shape="715.52,-127.86 717.52,-129.52 719.73,-130.70 721.39,-131.19"/>
    </edge>
    <edge id=":gneJ60_4" function="internal">
        <lane id=":gneJ60_4_0" index="0" speed="13.89" length="3.40" shape="721.39,-131.19 722.14,-131.41 724.75,-131.65"/>
    </edge>
    <edge id=":gneJ61_0" function="internal">
        <lane id=":gneJ61_0_0" index="0" speed="13.89" length="0.10" shape="730.00,-131.65 730.00,-131.65"/>
    </edge>
    <edge id=":gneJ62_0" function="internal">
        <lane id=":gneJ62_0_0" index="0" speed="13.89" length="13.02" shape="737.06,-110.61 734.72,-113.31 732.65,-115.81 730.31,-117.64 727.15,-118.35"/>
    </edge>
    <edge id=":gneJ62_1" function="internal">
        <lane id=":gneJ62_1_0" index="0" speed="13.89" length="13.11" shape="739.18,-113.56 736.12,-115.25 733.37,-116.80 730.51,-117.92 727.15,-118.35"/>
    </edge>
    <edge id=":gneJ62_2" function="internal">
        <lane id=":gneJ62_2_0" index="0" speed="13.89" length="10.73" shape="737.89,-118.35 727.15,-118.35"/>
    </edge>
    <edge id=":gneJ64_0" function="internal">
        <lane id=":gneJ64_0_0" index="0" speed="13.89" length="10.19" shape="737.01,-104.65 734.38,-106.17 732.57,-107.34 730.66,-108.09 727.73,-108.35"/>
    </edge>
    <edge id=":gneJ64_1" function="internal">
        <lane id=":gneJ64_1_0" index="0" speed="13.89" length="10.93" shape="738.67,-108.35 727.73,-108.35"/>
    </edge>
    <edge id=":gneJ64_2" function="internal">
        <lane id=":gneJ64_2_0" index="0" speed="13.89" length="10.90" shape="737.79,-112.05 735.04,-110.53 732.96,-109.36 730.79,-108.61 727.73,-108.35"/>
    </edge>
    <edge id=":gneJ66_0" function="internal">
        <lane id=":gneJ66_0_0" index="0" speed="13.89" length="10.15" shape="738.67,-98.35 728.52,-98.35"/>
    </edge>
    <edge id=":gneJ66_1" function="internal">
        <lane id=":gneJ66_1_0" index="0" speed="13.89" length="13.88" shape="741.14,-103.72 737.98,-101.94 735.03,-100.20 731.97,-98.88 728.52,-98.35"/>
    </edge>
    <edge id=":gneJ66_2" function="internal">
        <lane id=":gneJ66_2_0" index="0" speed="13.89" length="9.20" shape="739.01,-106.68 736.58,-103.88 734.31,-101.19 732.77,-99.95"/>
    </edge>
    <edge id=":gneJ66_3" function="internal">
        <lane id=":gneJ66_3_0" index="0" speed="13.89" length="4.62" shape="732.77,-99.95 731.77,-99.15 728.52,-98.35"/>
    </edge>
    <edge id=":gneJ68_0" function="internal">
        <lane id=":gneJ68_0_0" index="0" speed="13.89" length="5.00" shape="714.75,-98.35 713.39,-98.16 712.43,-97.57 711.84,-96.61 711.65,-95.25"/>
    </edge>
    <edge id=":gneJ68_1" function="internal">
        <lane id=":gneJ68_1_0" index="0" speed="13.89" length="6.20" shape="714.75,-98.35 708.55,-98.35"/>
    </edge>
    <edge id=":gneJ68_2" function="internal">
        <lane id=":gneJ68_2_0" index="0" speed="13.89" length="10.28" shape="711.65,-105.53 711.65,-95.25"/>
    </edge>
    <edge id=":gneJ68_3" function="internal">
        <lane id=":gneJ68_3_0" index="0" speed="13.89" length="8.55" shape="711.65,-105.53 711.46,-102.39 710.88,-100.14 709.91,-98.80 708.55,-98.35"/>
    </edge>
    <edge id=":gneJ68_4" function="internal">
        <lane id=":gneJ68_4_0" index="0" speed="13.89" length="4.73" shape="707.89,-103.65 709.53,-102.06 710.71,-100.14 710.77,-99.95"/>
    </edge>
    <edge id=":gneJ68_5" function="internal">
        <lane id=":gneJ68_5_0" index="0" speed="13.89" length="5.16" shape="707.89,-103.65 710.58,-101.33 711.42,-99.95"/>
    </edge>
    <edge id=":gneJ68_6" function="internal">
        <lane id=":gneJ68_6_0" index="0" speed="13.89" length="4.81" shape="710.77,-99.95 711.41,-97.87 711.65,-95.25"/>
    </edge>
    <edge id=":gneJ68_7" function="internal">
        <lane id=":gneJ68_7_0" index="0" speed="13.89" length="3.91" shape="711.42,-99.95 711.59,-99.67 710.91,-98.68 708.55,-98.35"/>
    </edge>
    <edge id=":gneJ69_0" function="internal">
        <lane id=":gneJ69_0_0" index="0" speed="13.89" length="0.10" shape="711.65,-90.00 711.65,-90.00"/>
    </edge>
    <edge id=":gneJ70_0" function="internal">
        <lane id=":gneJ70_0_0" index="0" speed="13.89" length="5.04" shape="704.80,-98.35 703.42,-98.16 702.44,-97.57 701.85,-96.61 701.65,-95.25"/>
    </edge>
    <edge id=":gneJ70_1" function="internal">