<?xml version="1.0" encoding="UTF-8"?>

<!-- generated on 6/25/2018 12:09:54 PM by Netedit Version 0.32.0
<?xml version="1.0" encoding="UTF-8"?>

<configuration xmlns:xsi="http://www.w3.org/2001/XMLSchema-instance" xsi:noNamespaceSchemaLocation="http://sumo.dlr.de/xsd/netconvertConfiguration.xsd">

    <input>
        <sumo-net-file value="C:\Users\abeld\Downloads\Intersection\SinglePoint\SinglePoint.net.xml"/>
    </input>

    <output>
        <output-file value="C:\Users\abeld\Downloads\Intersection\SinglePoint\SinglePoint.net.xml"/>
    </output>

    <processing>
        <no-turnarounds value="true"/>
        <offset.disable-normalization value="true"/>
        <lefthand value="false"/>
        <junctions.corner-detail value="0"/>
        <rectangular-lane-cut value="false"/>
        <walkingareas value="false"/>
    </processing>

</configuration>
-->

<net version="0.27" xmlns:xsi="http://www.w3.org/2001/XMLSchema-instance" xsi:noNamespaceSchemaLocation="http://sumo.dlr.de/xsd/net_file.xsd">

    <location netOffset="0.00,0.00" convBoundary="-620.00,-570.00,800.00,780.00" origBoundary="-10000000000.00,-10000000000.00,10000000000.00,10000000000.00" projParameter="!"/>

    <edge id=":gneJ10_0" function="internal">
        <lane id=":gneJ10_0_0" index="0" speed="13.89" length="0.10" shape="38.35,250.00 38.35,250.00"/>
    </edge>
    <edge id=":gneJ102_0" function="internal">
        <lane id=":gneJ102_0_0" index="0" speed="13.89" length="15.10" shape="290.46,88.95 287.38,86.64 284.30,84.26 281.06,82.40 277.52,81.65"/>
    </edge>
    <edge id=":gneJ102_1" function="internal">
        <lane id=":gneJ102_1_0" index="0" speed="13.89" length="15.15" shape="292.03,85.75 288.46,84.44 284.87,83.11 281.23,82.07 277.52,81.65"/>
    </edge>
    <edge id=":gneJ102_2" function="internal">
        <lane id=":gneJ102_2_0" index="0" speed="13.89" length="13.58" shape="291.09,81.65 277.52,81.65"/>
    </edge>
    <edge id=":gneJ103_0" function="internal">
        <lane id=":gneJ103_0_0" index="0" speed="13.89" length="13.12" shape="290.51,95.24 287.25,94.01 284.34,92.85 281.37,91.99 277.97,91.65"/>
    </edge>
    <edge id=":gneJ103_1" function="internal">
        <lane id=":gneJ103_1_0" index="0" speed="13.89" length="13.65" shape="291.63,91.65 277.97,91.65"/>
    </edge>
    <edge id=":gneJ103_2" function="internal">
        <lane id=":gneJ103_2_0" index="0" speed="13.89" length="13.63" shape="291.04,88.06 287.70,89.29 284.60,90.45 281.46,91.31 277.97,91.65"/>
    </edge>
    <edge id=":gneJ104_0" function="internal">
        <lane id=":gneJ104_0_0" index="0" speed="13.89" length="13.11" shape="291.63,101.65 278.52,101.65"/>
    </edge>
    <edge id=":gneJ104_1" function="internal">
        <lane id=":gneJ104_1_0" index="0" speed="13.89" length="15.68" shape="293.49,97.24 289.85,98.60 286.10,100.04 282.30,101.18 278.52,101.65"/>
    </edge>
    <edge id=":gneJ104_2" function="internal">
        <lane id=":gneJ104_2_0" index="0" speed="13.89" length="15.65" shape="291.92,94.04 288.77,96.40 285.53,98.88 282.13,100.85 278.52,101.65"/>
    </edge>
    <edge id=":gneJ11_0" function="internal">
        <lane id=":gneJ11_0_0" index="0" speed="13.89" length="0.10" shape="38.35,-100.00 38.35,-100.00"/>
    </edge>
    <edge id=":gneJ12_0" function="internal">
        <lane id=":gneJ12_0_0" index="0" speed="13.89" length="0.10" shape="28.35,250.00 28.35,250.00"/>
    </edge>
    <edge id=":gneJ134_0" function="internal">
        <lane id=":gneJ134_0_0" index="0" speed="13.89" length="13.11" shape="-181.63,48.35 -168.52,48.35"/>
    </edge>
    <edge id=":gneJ134_1" function="internal">
        <lane id=":gneJ134_1_0" index="0" speed="13.89" length="15.68" shape="-183.49,52.76 -179.85,51.40 -176.10,49.96 -172.30,48.82 -168.52,48.35"/>
    </edge>
    <edge id=":gneJ134_2" function="internal">
        <lane id=":gneJ134_2_0" index="0" speed="13.89" length="15.65" shape="-181.92,55.96 -178.77,53.60 -175.53,51.12 -172.13,49.15 -168.52,48.35"/>
    </edge>
    <edge id=":gneJ135_0" function="internal">
        <lane id=":gneJ135_0_0" index="0" speed="13.89" length="13.12" shape="-180.51,54.76 -177.25,55.99 -174.34,57.15 -171.37,58.01 -167.97,58.35"/>
    </edge>
    <edge id=":gneJ135_1" function="internal">
        <lane id=":gneJ135_1_0" index="0" speed="13.89" length="13.65" shape="-181.63,58.35 -167.97,58.35"/>
    </edge>
    <edge id=":gneJ135_2" function="internal">
        <lane id=":gneJ135_2_0" index="0" speed="13.89" length="13.63" shape="-181.04,61.94 -177.70,60.71 -174.60,59.55 -171.46,58.69 -167.97,58.35"/>
    </edge>
    <edge id=":gneJ136_0" function="internal">
        <lane id=":gneJ136_0_0" index="0" speed="13.89" length="0.10" shape="-180.87,64.64 -180.93,64.70"/>
    </edge>
    <edge id=":gneJ136_1" function="internal">
        <lane id=":gneJ136_1_0" index="0" speed="13.89" length="13.50" shape="-180.87,64.64 -177.56,65.88 -174.52,67.09 -171.43,67.99 -167.97,68.35"/>
    </edge>
    <edge id=":gneJ136_2" function="internal">
        <lane id=":gneJ136_2_0" index="0" speed="13.89" length="7.69" shape="-182.23,68.35 -179.61,68.12 -178.51,67.44 -178.95,66.30 -180.93,64.70"/>
    </edge>
    <edge id=":gneJ136_3" function="internal">
        <lane id=":gneJ136_3_0" index="0" speed="13.89" length="14.26" shape="-182.23,68.35 -167.97,68.35"/>
    </edge>
    <edge id=":gneJ14_0" function="internal">
        <lane id=":gneJ14_0_0" index="0" speed="13.89" length="10.19" shape="-162.27,48.35 -159.34,48.09 -157.43,47.34 -155.62,46.17 -152.99,44.65"/>
    </edge>
    <edge id=":gneJ14_1" function="internal">
        <lane id=":gneJ14_1_0" index="0" speed="13.89" length="10.16" shape="-162.27,48.35 -152.11,48.35"/>
    </edge>
    <edge id=":gneJ141_0" function="internal">
        <lane id=":gneJ141_0_0" index="0" speed="13.89" length="13.58" shape="48.35,311.09 48.35,297.52"/>
    </edge>
    <edge id=":gneJ141_1" function="internal">
        <lane id=":gneJ141_1_0" index="0" speed="13.89" length="15.10" shape="41.05,310.46 43.36,307.38 45.74,304.30 47.60,301.06 48.35,297.52"/>
    </edge>
    <edge id=":gneJ141_2" function="internal">
        <lane id=":gneJ141_2_0" index="0" speed="13.89" length="15.15" shape="44.25,312.03 45.56,308.46 46.89,304.87 47.93,301.23 48.35,297.52"/>
    </edge>
    <edge id=":gneJ142_0" function="internal">
        <lane id=":gneJ142_0_0" index="0" speed="13.89" length="13.65" shape="38.35,311.63 38.35,297.97"/>
    </edge>
    <edge id=":gneJ142_1" function="internal">
        <lane id=":gneJ142_1_0" index="0" speed="13.89" length="13.63" shape="41.94,311.04 40.71,307.70 39.55,304.60 38.69,301.46 38.35,297.97"/>
    </edge>
    <edge id=":gneJ142_2" function="internal">
        <lane id=":gneJ142_2_0" index="0" speed="13.89" length="13.12" shape="34.76,310.51 35.99,307.25 37.15,304.34 38.01,301.37 38.35,297.97"/>
    </edge>
    <edge id=":gneJ143_0" function="internal">
        <lane id=":gneJ143_0_0" index="0" speed="13.89" length="13.11" shape="28.35,311.63 28.35,298.52"/>
    </edge>
    <edge id=":gneJ143_1" function="internal">
        <lane id=":gneJ143_1_0" index="0" speed="13.89" length="15.68" shape="32.76,313.49 31.40,309.85 29.96,306.10 28.82,302.30 28.35,298.52"/>
    </edge>
    <edge id=":gneJ143_2" function="internal">
        <lane id=":gneJ143_2_0" index="0" speed="13.89" length="15.65" shape="35.96,311.92 33.60,308.77 31.12,305.53 29.15,302.13 28.35,298.52"/>
    </edge>
    <edge id=":gneJ145_0" function="internal">
        <lane id=":gneJ145_0_0" index="0" speed="13.89" length="13.11" shape="81.65,-161.63 81.65,-148.52"/>
    </edge>
    <edge id=":gneJ145_1" function="internal">
        <lane id=":gneJ145_1_0" index="0" speed="13.89" length="15.68" shape="77.24,-163.49 78.60,-159.85 80.04,-156.10 81.18,-152.30 81.65,-148.52"/>
    </edge>
    <edge id=":gneJ145_2" function="internal">
        <lane id=":gneJ145_2_0" index="0" speed="13.89" length="15.65" shape="74.04,-161.92 76.40,-158.77 78.88,-155.53 80.85,-152.13 81.65,-148.52"/>
    </edge>
    <edge id=":gneJ146_0" function="internal">
        <lane id=":gneJ146_0_0" index="0" speed="13.89" length="13.12" shape="75.24,-160.51 74.01,-157.25 72.85,-154.34 71.99,-151.37 71.65,-147.97"/>
    </edge>
    <edge id=":gneJ146_1" function="internal">
        <lane id=":gneJ146_1_0" index="0" speed="13.89" length="13.65" shape="71.65,-161.63 71.65,-147.97"/>
    </edge>
    <edge id=":gneJ146_2" function="internal">
        <lane id=":gneJ146_2_0" index="0" speed="13.89" length="13.63" shape="68.06,-161.04 69.29,-157.70 70.45,-154.60 71.31,-151.46 71.65,-147.97"/>
    </edge>
    <edge id=":gneJ147_0" function="internal">
        <lane id=":gneJ147_0_0" index="0" speed="13.89" length="15.10" shape="68.95,-160.46 66.64,-157.38 64.26,-154.30 62.40,-151.06 61.65,-147.52"/>
    </edge>
    <edge id=":gneJ147_1" function="internal">
        <lane id=":gneJ147_1_0" index="0" speed="13.89" length="15.15" shape="65.75,-162.03 64.44,-158.46 63.11,-154.87 62.07,-151.23 61.65,-147.52"/>
    </edge>
    <edge id=":gneJ147_2" function="internal">
        <lane id=":gneJ147_2_0" index="0" speed="13.89" length="13.58" shape="61.65,-161.09 61.65,-147.52"/>
    </edge>
    <edge id=":gneJ15_0" function="internal">
        <lane id=":gneJ15_0_0" index="0" speed="13.89" length="0.10" shape="270.00,48.35 270.00,48.35"/>
    </edge>
    <edge id=":gneJ16_0" function="internal">
        <lane id=":gneJ16_0_0" index="0" speed="13.89" length="0.10" shape="-160.00,58.35 -160.00,58.35"/>
    </edge>
    <edge id=":gneJ165_0" function="internal">
        <lane id=":gneJ165_0_0" index="0" speed="13.89" length="0.10" shape="28.35,-100.00 28.35,-100.00"/>
    </edge>
    <edge id=":gneJ17_0" function="internal">
        <lane id=":gneJ17_0_0" index="0" speed="13.89" length="0.10" shape="270.00,58.35 270.00,58.35"/>
    </edge>
    <edge id=":gneJ18_0" function="internal">
        <lane id=":gneJ18_0_0" index="0" speed="13.89" length="0.10" shape="-160.00,68.35 -160.00,68.35"/>
    </edge>
    <edge id=":gneJ19_0" function="internal">
        <lane id=":gneJ19_0_0" index="0" speed="13.89" length="0.10" shape="270.00,68.35 270.00,68.35"/>
    </edge>
    <edge id=":gneJ2_0" function="internal">
        <lane id=":gneJ2_0_0" index="0" speed="13.89" length="0.10" shape="61.65,-100.00 61.65,-100.00"/>
    </edge>
    <edge id=":gneJ20_0" function="internal">
        <lane id=":gneJ20_0_0" index="0" speed="13.89" length="0.10" shape="270.00,81.65 270.00,81.65"/>
    </edge>
    <edge id=":gneJ207_0" function="internal">
        <lane id=":gneJ207_0_0" index="0" speed="13.89" length="0.10" shape="61.65,250.00 61.65,250.00"/>
    </edge>
    <edge id=":gneJ208_0" function="internal">
        <lane id=":gneJ208_0_0" index="0" speed="13.89" length="0.10" shape="48.35,-100.00 48.35,-100.00"/>
    </edge>
    <edge id=":gneJ21_0" function="internal">
        <lane id=":gneJ21_0_0" index="0" speed="13.89" length="0.10" shape="-160.00,81.65 -160.00,81.65"/>
    </edge>
    <edge id=":gneJ22_0" function="internal">
        <lane id=":gneJ22_0_0" index="0" speed="13.89" length="0.10" shape="270.00,91.65 270.00,91.65"/>
    </edge>
    <edge id=":gneJ24_0" function="internal">
        <lane id=":gneJ24_0_0" index="0" speed="13.89" length="10.19" shape="272.27,101.65 269.34,101.91 267.43,102.66 265.62,103.83 262.99,105.35"/>
    </edge>
    <edge id=":gneJ24_1" function="internal">
        <lane id=":gneJ24_1_0" index="0" speed="13.89" length="10.16" shape="272.27,101.65 262.11,101.65"/>
    </edge>
    <edge id=":gneJ25_0" function="internal">
        <lane id=":gneJ25_0_0" index="0" speed="13.89" length="10.19" shape="-152.99,105.35 -155.62,103.83 -157.43,102.66 -159.34,101.91 -162.27,101.65"/>
    </edge>
    <edge id=":gneJ25_1" function="internal">
        <lane id=":gneJ25_1_0" index="0" speed="13.89" length="10.16" shape="-152.11,101.65 -162.27,101.65"/>
    </edge>
    <edge id=":gneJ266_0" function="internal">
        <lane id=":gneJ266_0_0" index="0" speed="13.89" length="0.18" shape="81.65,-70.18 81.65,-70.13 81.65,-70.09 81.65,-70.06 81.66,-70.00"/>
    </edge>
    <edge id=":gneJ268_0" function="internal">
        <lane id=":gneJ268_0_0" index="0" speed="13.89" length="0.10" shape="61.65,-70.00 61.65,-70.00"/>
    </edge>
    <edge id=":gneJ269_0" function="internal">
        <lane id=":gneJ269_0_0" index="0" speed="13.89" length="0.10" shape="71.65,-70.00 71.65,-70.00"/>
    </edge>
    <edge id=":gneJ272_0" function="internal">
        <lane id=":gneJ272_0_0" index="0" speed="13.89" length="0.10" shape="48.35,-70.00 48.35,-70.00"/>
    </edge>
    <edge id=":gneJ273_0" function="internal">
        <lane id=":gneJ273_0_0" index="0" speed="13.89" length="0.10" shape="38.35,-70.00 38.35,-70.00"/>
    </edge>
    <edge id=":gneJ274_0" function="internal">
        <lane id=":gneJ274_0_0" index="0" speed="13.89" length="0.18" shape="28.34,-70.00 28.35,-70.06 28.35,-70.09 28.35,-70.13 28.35,-70.18"/>
    </edge>
    <edge id=":gneJ278_0" function="internal">
        <lane id=":gneJ278_0_0" index="0" speed="13.89" length="0.10" shape="71.65,220.00 71.65,220.00"/>
    </edge>
    <edge id=":gneJ279_0" function="internal">
        <lane id=":gneJ279_0_0" index="0" speed="13.89" length="0.10" shape="61.65,220.00 61.65,220.00"/>
    </edge>
    <edge id=":gneJ280_0" function="internal">
        <lane id=":gneJ280_0_0" index="0" speed="13.89" length="0.10" shape="48.35,220.00 48.35,220.00"/>
    </edge>
    <edge id=":gneJ281_0" function="internal">
        <lane id=":gneJ281_0_0" index="0" speed="13.89" length="0.10" shape="38.35,220.00 38.35,220.00"/>
    </edge>
    <edge id=":gneJ282_0" function="internal">
        <lane id=":gneJ282_0_0" index="0" speed="13.89" length="0.18" shape="28.35,220.18 28.35,220.13 28.35,220.09 28.35,220.06 28.34,220.00"/>
    </edge>
    <edge id=":gneJ284_0" function="internal">
        <lane id=":gneJ284_0_0" index="0" speed="13.89" length="0.18" shape="81.66,220.00 81.65,220.06 81.65,220.09 81.65,220.13 81.65,220.18"/>
    </edge>
    <edge id=":gneJ285_0" function="internal">
        <lane id=":gneJ285_0_0" index="0" speed="13.89" length="0.75" shape="-120.73,28.52 -120.53,28.42 -120.38,28.37 -120.23,28.35 -120.01,28.35"/>
    </edge>
    <edge id=":gneJ286_0" function="internal">
        <lane id=":gneJ286_0_0" index="0" speed="13.89" length="0.75" shape="-120.01,121.65 -120.23,121.65 -120.38,121.63 -120.53,121.58 -120.73,121.48"/>
    </edge>
    <edge id=":gneJ287_0" function="internal">
        <lane id=":gneJ287_0_0" index="0" speed="13.89" length="0.75" shape="230.73,121.48 230.53,121.58 230.38,121.63 230.23,121.65 230.01,121.65"/>
    </edge>
    <edge id=":gneJ288_0" function="internal">
        <lane id=":gneJ288_0_0" index="0" speed="13.89" length="0.75" shape="230.01,28.35 230.23,28.35 230.38,28.37 230.53,28.42 230.73,28.52"/>
    </edge>
    <edge id=":gneJ290_0" function="internal">
        <lane id=":gneJ290_0_0" index="0" speed="13.89" length="6.41" shape="122.03,121.65 120.14,121.74 118.88,122.01 117.64,122.47 115.85,123.12"/>
    </edge>
    <edge id=":gneJ290_1" function="internal">
        <lane id=":gneJ290_1_0" index="0" speed="13.89" length="5.81" shape="122.03,121.65 120.66,121.48 119.38,120.98 118.20,120.14 117.10,118.97"/>
    </edge>
    <edge id=":gneJ291_0" function="internal">
        <lane id=":gneJ291_0_0" index="0" speed="13.89" length="6.41" shape="115.85,26.88 117.64,27.53 118.88,27.99 120.14,28.26 122.03,28.35"/>
    </edge>
    <edge id=":gneJ291_1" function="internal">
        <lane id=":gneJ291_1_0" index="0" speed="13.89" length="2.11" shape="117.10,31.03 118.20,29.86 118.61,29.57"/>
    </edge>
    <edge id=":gneJ291_2" function="internal">
        <lane id=":gneJ291_2_0" index="0" speed="13.89" length="3.70" shape="118.61,29.57 119.38,29.02 120.66,28.52 122.03,28.35"/>
    </edge>
    <edge id=":gneJ292_0" function="internal">
        <lane id=":gneJ292_0_0" index="0" speed="13.89" length="6.41" shape="-5.85,123.12 -7.64,122.47 -8.88,122.01 -10.14,121.74 -12.03,121.65"/>
    </edge>
    <edge id=":gneJ292_1" function="internal">
        <lane id=":gneJ292_1_0" index="0" speed="13.89" length="2.11" shape="-7.10,118.97 -8.20,120.14 -8.61,120.43"/>
    </edge>
    <edge id=":gneJ292_2" function="internal">
        <lane id=":gneJ292_2_0" index="0" speed="13.89" length="3.70" shape="-8.61,120.43 -9.38,120.98 -10.66,121.48 -12.03,121.65"/>
    </edge>
    <edge id=":gneJ293_0" function="internal">
        <lane id=":gneJ293_0_0" index="0" speed="13.89" length="6.41" shape="-12.03,28.35 -10.14,28.26 -8.88,27.99 -7.64,27.53 -5.85,26.88"/>
    </edge>
    <edge id=":gneJ293_1" function="internal">
        <lane id=":gneJ293_1_0" index="0" speed="13.89" length="5.81" shape="-12.03,28.35 -10.66,28.52 -9.38,29.02 -8.20,29.86 -7.10,31.03"/>
    </edge>
    <edge id=":gneJ294_0" function="internal">
        <lane id=":gneJ294_0_0" index="0" speed="13.89" length="1.83" shape="17.51,19.09 17.94,18.89 18.26,18.60 18.48,18.22 18.59,17.75"/>
    </edge>
    <edge id=":gneJ295_0" function="internal">
        <lane id=":gneJ295_0_0" index="0" speed="13.89" length="1.83" shape="91.41,17.75 91.52,18.22 91.74,18.60 92.06,18.89 92.49,19.09"/>
    </edge>
    <edge id=":gneJ296_0" function="internal">
        <lane id=":gneJ296_0_0" index="0" speed="13.89" length="1.83" shape="92.49,130.91 92.06,131.11 91.74,131.40 91.52,131.78 91.41,132.25"/>
    </edge>
    <edge id=":gneJ297_0" function="internal">
        <lane id=":gneJ297_0_0" index="0" speed="13.89" length="1.83" shape="18.59,132.25 18.48,131.78 18.26,131.40 17.94,131.11 17.51,130.91"/>
    </edge>
    <edge id=":gneJ298_0" function="internal">
        <lane id=":gneJ298_0_0" index="0" speed="13.89" length="1.07" shape="48.35,119.98 48.36,119.67 48.40,119.45 48.50,119.25 48.69,119.00"/>
    </edge>
    <edge id=":gneJ299_0" function="internal">
        <lane id=":gneJ299_0_0" index="0" speed="13.89" length="1.07" shape="61.65,30.02 61.64,30.33 61.60,30.55 61.50,30.75 61.31,31.00"/>
    </edge>
    <edge id=":gneJ300_0" function="internal">
        <lane id=":gneJ300_0_0" index="0" speed="13.89" length="1.07" shape="61.31,119.00 61.50,119.25 61.60,119.45 61.64,119.67 61.65,119.98"/>
    </edge>
    <edge id=":gneJ301_0" function="internal">
        <lane id=":gneJ301_0_0" index="0" speed="13.89" length="1.07" shape="48.69,31.00 48.50,30.75 48.40,30.55 48.36,30.33 48.35,30.02"/>
    </edge>
    <edge id=":gneJ38_0" function="internal">
        <lane id=":gneJ38_0_0" index="0" speed="13.89" length="13.11" shape="768.52,48.35 781.63,48.35"/>
    </edge>
    <edge id=":gneJ38_1" function="internal">
        <lane id=":gneJ38_1_0" index="0" speed="13.89" length="15.68" shape="768.52,48.35 772.30,48.82 776.10,49.96 779.85,51.40 783.49,52.76"/>
    </edge>
    <edge id=":gneJ38_2" function="internal">
        <lane id=":gneJ38_2_0" index="0" speed="13.89" length="15.65" shape="768.52,48.35 772.13,49.15 775.53,51.12 778.77,53.60 781.92,55.96"/>
    </edge>
    <edge id=":gneJ39_0" function="internal">
        <lane id=":gneJ39_0_0" index="0" speed="13.89" length="12.62" shape="768.51,58.35 771.83,58.01 774.60,57.15 777.34,55.99 780.51,54.76"/>
    </edge>
    <edge id=":gneJ39_1" function="internal">
        <lane id=":gneJ39_1_0" index="0" speed="13.89" length="13.12" shape="768.51,58.35 781.63,58.35"/>
    </edge>
    <edge id=":gneJ39_2" function="internal">
        <lane id=":gneJ39_2_0" index="0" speed="13.89" length="13.12" shape="768.51,58.35 771.91,58.69 774.87,59.55 777.79,60.71 781.04,61.94"/>
    </edge>
    <edge id=":gneJ4_0" function="internal">
        <lane id=":gneJ4_0_0" index="0" speed="13.89" length="0.10" shape="71.65,-100.00 71.65,-100.00"/>
    </edge>
    <edge id=":gneJ40_0" function="internal">
        <lane id=":gneJ40_0_0" index="0" speed="13.89" length="15.10" shape="767.52,68.35 771.06,67.60 774.30,65.74 777.38,63.36 780.46,61.05"/>
    </edge>
    <edge id=":gneJ40_1" function="internal">
        <lane id=":gneJ40_1_0" index="0" speed="13.89" length="15.15" shape="767.52,68.35 771.23,67.93 774.87,66.89 778.46,65.56 782.03,64.25"/>
    </edge>
    <edge id=":gneJ40_2" function="internal">
        <lane id=":gneJ40_2_0" index="0" speed="13.89" length="13.58" shape="767.52,68.35 781.09,68.35"/>
    </edge>
    <edge id=":gneJ44_0" function="internal">
        <lane id=":gneJ44_0_0" index="0" speed="13.89" length="13.11" shape="-588.52,101.65 -601.63,101.65"/>
    </edge>
    <edge id=":gneJ44_1" function="internal">
        <lane id=":gneJ44_1_0" index="0" speed="13.89" length="15.68" shape="-588.52,101.65 -592.30,101.18 -596.10,100.04 -599.85,98.60 -603.49,97.24"/>
    </edge>
    <edge id=":gneJ44_2" function="internal">
        <lane id=":gneJ44_2_0" index="0" speed="13.89" length="15.65" shape="-588.52,101.65 -592.13,100.85 -595.53,98.88 -598.77,96.40 -601.92,94.04"/>
    </edge>
    <edge id=":gneJ45_0" function="internal">
        <lane id=":gneJ45_0_0" index="0" speed="13.89" length="0.10" shape="-160.00,91.65 -160.00,91.65"/>
    </edge>
    <edge id=":gneJ46_0" function="internal">
        <lane id=":gneJ46_0_0" index="0" speed="13.89" length="12.62" shape="-588.51,91.65 -591.83,91.99 -594.60,92.85 -597.34,94.01 -600.51,95.24"/>
    </edge>
    <edge id=":gneJ46_1" function="internal">
        <lane id=":gneJ46_1_0" index="0" speed="13.89" length="13.12" shape="-588.51,91.65 -601.63,91.65"/>
    </edge>
    <edge id=":gneJ46_2" function="internal">
        <lane id=":gneJ46_2_0" index="0" speed="13.89" length="13.12" shape="-588.51,91.65 -591.91,91.31 -594.87,90.45 -597.79,89.29 -601.04,88.06"/>
    </edge>
    <edge id=":gneJ47_0" function="internal">
        <lane id=":gneJ47_0_0" index="0" speed="13.89" length="15.10" shape="-587.52,81.65 -591.06,82.40 -594.30,84.26 -597.38,86.64 -600.46,88.95"/>
    </edge>
    <edge id=":gneJ47_1" function="internal">
        <lane id=":gneJ47_1_0" index="0" speed="13.89" length="15.15" shape="-587.52,81.65 -591.23,82.07 -594.87,83.11 -598.46,84.44 -602.03,85.75"/>
    </edge>
    <edge id=":gneJ47_2" function="internal">
        <lane id=":gneJ47_2_0" index="0" speed="13.89" length="13.58" shape="-587.52,81.65 -601.09,81.65"/>
    </edge>
    <edge id=":gneJ5_0" function="internal">
        <lane id=":gneJ5_0_0" index="0" speed="13.89" length="0.10" shape="71.65,250.00 71.65,250.00"/>
    </edge>
    <edge id=":gneJ52_0" function="internal">
        <lane id=":gneJ52_0_0" index="0" speed="13.89" length="15.10" shape="-202.48,68.35 -198.94,67.60 -195.70,65.74 -192.62,63.36 -189.54,61.05"/>
    </edge>
    <edge id=":gneJ52_1" function="internal">
        <lane id=":gneJ52_1_0" index="0" speed="13.89" length="15.15" shape="-202.48,68.35 -198.77,67.93 -195.13,66.89 -191.54,65.56 -187.97,64.25"/>
    </edge>
    <edge id=":gneJ52_2" function="internal">
        <lane id=":gneJ52_2_0" index="0" speed="13.89" length="13.58" shape="-202.48,68.35 -188.91,68.35"/>
    </edge>
    <edge id=":gneJ54_0" function="internal">
        <lane id=":gneJ54_0_0" index="0" speed="13.89" length="12.62" shape="-201.49,58.35 -198.17,58.01 -195.40,57.15 -192.66,55.99 -189.49,54.76"/>
    </edge>
    <edge id=":gneJ54_1" function="internal">
        <lane id=":gneJ54_1_0" index="0" speed="13.89" length="13.12" shape="-201.49,58.35 -188.37,58.35"/>
    </edge>
    <edge id=":gneJ54_2" function="internal">
        <lane id=":gneJ54_2_0" index="0" speed="13.89" length="13.12" shape="-201.49,58.35 -198.09,58.69 -195.13,59.55 -192.21,60.71 -188.96,61.94"/>
    </edge>
    <edge id=":gneJ56_0" function="internal">
        <lane id=":gneJ56_0_0" index="0" speed="13.89" length="9.10" shape="-191.25,57.81 -196.40,53.67 -197.36,51.37"/>
    </edge>
    <edge id=":gneJ56_3" function="internal">
        <lane id=":gneJ56_3_0" index="0" speed="13.89" length="10.52" shape="-197.36,51.37 -197.63,50.72 -194.96,48.94 -188.37,48.35"/>
    </edge>
    <edge id=":gneJ56_1" function="internal">
        <lane id=":gneJ56_1_0" index="0" speed="13.89" length="19.06" shape="-207.43,48.35 -188.37,48.35"/>
    </edge>
    <edge id=":gneJ56_2" function="internal">
        <lane id=":gneJ56_2_0" index="0" speed="13.89" length="18.81" shape="-207.43,48.35 -203.11,48.69 -198.13,49.54 -193.19,50.70 -189.02,51.92"/>
    </edge>
    <edge id=":gneJ58_0" function="internal">
        <lane id=":gneJ58_0_0" index="0" speed="13.89" length="15.10" shape="312.48,81.65 308.94,82.40 305.70,84.26 302.62,86.64 299.54,88.95"/>
    </edge>
    <edge id=":gneJ58_1" function="internal">
        <lane id=":gneJ58_1_0" index="0" speed="13.89" length="15.15" shape="312.48,81.65 308.77,82.07 305.13,83.11 301.54,84.44 297.97,85.75"/>
    </edge>
    <edge id=":gneJ58_2" function="internal">
        <lane id=":gneJ58_2_0" index="0" speed="13.89" length="13.58" shape="312.48,81.65 298.91,81.65"/>
    </edge>
    <edge id=":gneJ6_0" function="internal">
        <lane id=":gneJ6_0_0" index="0" speed="13.89" length="0.10" shape="81.65,-100.00 81.65,-100.00"/>
    </edge>
    <edge id=":gneJ60_0" function="internal">
        <lane id=":gneJ60_0_0" index="0" speed="13.89" length="12.62" shape="311.49,91.65 308.17,91.99 305.40,92.85 302.66,94.01 299.49,95.24"/>
    </edge>
    <edge id=":gneJ60_1" function="internal">
        <lane id=":gneJ60_1_0" index="0" speed="13.89" length="13.12" shape="311.49,91.65 298.37,91.65"/>
    </edge>
    <edge id=":gneJ60_2" function="internal">
        <lane id=":gneJ60_2_0" index="0" speed="13.89" length="13.12" shape="311.49,91.65 308.09,91.31 305.13,90.45 302.21,89.29 298.96,88.06"/>
    </edge>
    <edge id=":gneJ62_0" function="internal">
        <lane id=":gneJ62_0_0" index="0" speed="13.89" length="13.11" shape="311.48,101.65 298.37,101.65"/>
    </edge>
    <edge id=":gneJ62_1" function="internal">
        <lane id=":gneJ62_1_0" index="0" speed="13.89" length="15.68" shape="311.48,101.65 307.70,101.18 303.90,100.04 300.15,98.60 296.51,97.24"/>
    </edge>
    <edge id=":gneJ62_2" function="internal">
        <lane id=":gneJ62_2_0" index="0" speed="13.89" length="15.65" shape="311.48,101.65 307.87,100.85 304.47,98.88 301.23,96.40 298.08,94.04"/>
    </edge>
    <edge id=":gneJ63_0" function="internal">
        <lane id=":gneJ63_0_0" index="0" speed="13.89" length="19.06" shape="28.35,-532.57 28.35,-551.63"/>
    </edge>
    <edge id=":gneJ63_1" function="internal">
        <lane id=":gneJ63_1_0" index="0" speed="13.89" length="18.81" shape="28.35,-532.57 28.69,-536.89 29.54,-541.87 30.70,-546.81 31.92,-550.98"/>
    </edge>
    <edge id=":gneJ63_2" function="internal">
        <lane id=":gneJ63_2_0" index="0" speed="13.89" length="9.10" shape="37.81,-548.75 33.67,-543.60 31.37,-542.64"/>
    </edge>
    <edge id=":gneJ63_3" function="internal">
        <lane id=":gneJ63_3_0" index="0" speed="13.89" length="10.52" shape="31.37,-542.64 30.72,-542.37 28.94,-545.04 28.35,-551.63"/>
    </edge>
    <edge id=":gneJ64_0" function="internal">
        <lane id=":gneJ64_0_0" index="0" speed="13.89" length="13.12" shape="38.35,-537.97 38.01,-541.37 37.15,-544.34 35.99,-547.25 34.76,-550.51"/>
    </edge>
    <edge id=":gneJ64_1" function="internal">
        <lane id=":gneJ64_1_0" index="0" speed="13.89" length="13.65" shape="38.35,-537.97 38.35,-551.63"/>
    </edge>
    <edge id=":gneJ64_2" function="internal">
        <lane id=":gneJ64_2_0" index="0" speed="13.89" length="13.63" shape="38.35,-537.97 38.69,-541.46 39.55,-544.60 40.71,-547.70 41.94,-551.04"/>
    </edge>
    <edge id=":gneJ65_0" function="internal">
        <lane id=":gneJ65_0_0" index="0" speed="13.89" length="14.38" shape="48.35,-537.97 47.95,-541.56 46.95,-544.93 45.65,-548.26 44.36,-551.70"/>
    </edge>
    <edge id=":gneJ65_1" function="internal">
        <lane id=":gneJ65_1_0" index="0" speed="13.89" length="14.26" shape="48.35,-537.97 48.35,-552.23"/>
    </edge>
    <edge id=":gneJ65_2" function="internal">
        <lane id=":gneJ65_2_0" index="0" speed="13.89" length="0.61" shape="44.20,-551.68 44.34,-551.49 44.41,-551.43 44.42,-551.50 44.36,-551.70"/>
    </edge>
    <edge id=":gneJ65_3" function="internal">
        <lane id=":gneJ65_3_0" index="0" speed="13.89" length="8.21" shape="44.20,-551.68 46.02,-549.38 47.31,-548.70 48.09,-549.65 48.35,-552.23"/>
    </edge>
    <edge id=":gneJ67_0" function="internal">
        <lane id=":gneJ67_0_0" index="0" speed="13.89" length="15.10" shape="61.65,-182.48 62.40,-178.94 64.26,-175.70 66.64,-172.62 68.95,-169.54"/>
    </edge>
    <edge id=":gneJ67_1" function="internal">
        <lane id=":gneJ67_1_0" index="0" speed="13.89" length="15.15" shape="61.65,-182.48 62.07,-178.77 63.11,-175.13 64.44,-171.54 65.75,-167.97"/>
    </edge>
    <edge id=":gneJ67_2" function="internal">
        <lane id=":gneJ67_2_0" index="0" speed="13.89" length="13.58" shape="61.65,-182.48 61.65,-168.91"/>
    </edge>
    <edge id=":gneJ69_0" function="internal">
        <lane id=":gneJ69_0_0" index="0" speed="13.89" length="12.62" shape="71.65,-181.49 71.99,-178.17 72.85,-175.40 74.01,-172.66 75.24,-169.49"/>
    </edge>
    <edge id=":gneJ69_1" function="internal">
        <lane id=":gneJ69_1_0" index="0" speed="13.89" length="13.12" shape="71.65,-181.49 71.65,-168.37"/>
    </edge>
    <edge id=":gneJ69_2" function="internal">
        <lane id=":gneJ69_2_0" index="0" speed="13.89" length="13.12" shape="71.65,-181.49 71.31,-178.09 70.45,-175.13 69.29,-172.21 68.06,-168.96"/>