<?xml version="1.0" encoding="UTF-8"?>

<!-- generated on 6/25/2018 11:32:56 PM by Netedit Version 0.32.0
<?xml version="1.0" encoding="UTF-8"?>

<configuration xmlns:xsi="http://www.w3.org/2001/XMLSchema-instance" xsi:noNamespaceSchemaLocation="http://sumo.dlr.de/xsd/netconvertConfiguration.xsd">

    <input>
        <sumo-net-file value="C:\Users\abeld\Documents\School\Year%202\Project%202-2\Project_2.2\desktop\assets\Intersection\DivergingDiamond\DivergingDiamond.net.xml"/>
    </input>

    <output>
        <output-file value="C:\Users\abeld\Documents\School\Year%202\Project%202-2\Project_2.2\desktop\assets\Intersection\DivergingDiamond\DivergingDiamond.net.xml"/>
        <plain-output-prefix value=""/>
    </output>

    <processing>
        <no-turnarounds value="true"/>
        <offset.disable-normalization value="true"/>
        <lefthand value="false"/>
        <junctions.corner-detail value="0"/>
        <rectangular-lane-cut value="false"/>
        <walkingareas value="false"/>
    </processing>

</configuration>
-->

<net version="0.27" xmlns:xsi="http://www.w3.org/2001/XMLSchema-instance" xsi:noNamespaceSchemaLocation="http://sumo.dlr.de/xsd/net_file.xsd">

    <location netOffset="0.00,0.00" convBoundary="-790.00,-760.00,900.00,920.00" origBoundary="-10000000000.00,-10000000000.00,10000000000.00,10000000000.00" projParameter="!"/>

    <edge id=":gneJ10_0" function="internal">
        <lane id=":gneJ10_0_0" index="0" speed="13.89" length="0.10" shape="38.35,250.00 38.35,250.00"/>
    </edge>
    <edge id=":gneJ11_0" function="internal">
        <lane id=":gneJ11_0_0" index="0" speed="13.89" length="0.10" shape="38.35,-100.00 38.35,-100.00"/>
    </edge>
    <edge id=":gneJ12_0" function="internal">
        <lane id=":gneJ12_0_0" index="0" speed="13.89" length="0.10" shape="28.35,250.00 28.35,250.00"/>
    </edge>
    <edge id=":gneJ14_0" function="internal">
        <lane id=":gneJ14_0_0" index="0" speed="13.89" length="10.19" shape="-122.27,48.35 -119.34,48.09 -117.43,47.34 -115.62,46.17 -112.99,44.65"/>
    </edge>
    <edge id=":gneJ14_1" function="internal">
        <lane id=":gneJ14_1_0" index="0" speed="13.89" length="10.16" shape="-122.27,48.35 -112.11,48.35"/>
    </edge>
    <edge id=":gneJ15_0" function="internal">
        <lane id=":gneJ15_0_0" index="0" speed="13.89" length="10.19" shape="222.99,44.65 225.62,46.17 227.43,47.34 229.34,48.09 232.27,48.35"/>
    </edge>
    <edge id=":gneJ15_1" function="internal">
        <lane id=":gneJ15_1_0" index="0" speed="13.89" length="10.16" shape="222.11,48.35 232.27,48.35"/>
    </edge>
    <edge id=":gneJ16_0" function="internal">
        <lane id=":gneJ16_0_0" index="0" speed="13.89" length="0.10" shape="-120.00,58.35 -120.00,58.35"/>
    </edge>
    <edge id=":gneJ165_0" function="internal">
        <lane id=":gneJ165_0_0" index="0" speed="13.89" length="0.10" shape="28.35,-100.00 28.35,-100.00"/>
    </edge>
    <edge id=":gneJ17_0" function="internal">
        <lane id=":gneJ17_0_0" index="0" speed="13.89" length="0.10" shape="230.00,58.35 230.00,58.35"/>
    </edge>
    <edge id=":gneJ18_0" function="internal">
        <lane id=":gneJ18_0_0" index="0" speed="13.89" length="0.10" shape="-120.00,68.35 -120.00,68.35"/>
    </edge>
    <edge id=":gneJ19_0" function="internal">
        <lane id=":gneJ19_0_0" index="0" speed="13.89" length="0.10" shape="230.00,68.35 230.00,68.35"/>
    </edge>
    <edge id=":gneJ2_0" function="internal">
        <lane id=":gneJ2_0_0" index="0" speed="13.89" length="0.10" shape="61.65,-100.00 61.65,-100.00"/>
    </edge>
    <edge id=":gneJ20_0" function="internal">
        <lane id=":gneJ20_0_0" index="0" speed="13.89" length="0.10" shape="230.00,81.65 230.00,81.65"/>
    </edge>
    <edge id=":gneJ207_0" function="internal">
        <lane id=":gneJ207_0_0" index="0" speed="13.89" length="0.10" shape="61.65,250.00 61.65,250.00"/>
    </edge>
    <edge id=":gneJ208_0" function="internal">
        <lane id=":gneJ208_0_0" index="0" speed="13.89" length="0.10" shape="48.35,-100.00 48.35,-100.00"/>
    </edge>
    <edge id=":gneJ21_0" function="internal">
        <lane id=":gneJ21_0_0" index="0" speed="13.89" length="0.10" shape="-120.00,81.65 -120.00,81.65"/>
    </edge>
    <edge id=":gneJ22_0" function="internal">
        <lane id=":gneJ22_0_0" index="0" speed="13.89" length="0.10" shape="230.00,91.65 230.00,91.65"/>
    </edge>
    <edge id=":gneJ232_0" function="internal">
        <lane id=":gneJ232_0_0" index="0" speed="13.89" length="0.29" shape="-81.00,28.66 -80.92,28.62 -80.87,28.59 -80.82,28.56 -80.76,28.50"/>
    </edge>
    <edge id=":gneJ233_0" function="internal">
        <lane id=":gneJ233_0_0" index="0" speed="13.89" length="1.04" shape="-40.98,-1.33 -40.73,-1.51 -40.53,-1.60 -40.32,-1.64 -40.02,-1.65"/>
    </edge>
    <edge id=":gneJ234_0" function="internal">
        <lane id=":gneJ234_0_0" index="0" speed="13.89" length="0.13" shape="-70.62,121.54 -70.74,121.48"/>
    </edge>
    <edge id=":gneJ235_0" function="internal">
        <lane id=":gneJ235_0_0" index="0" speed="13.89" length="6.29" shape="-7.77,154.56 -9.05,153.21 -9.94,152.26 -10.94,151.47 -12.55,150.57"/>
    </edge>
    <edge id=":gneJ235_1" function="internal">
        <lane id=":gneJ235_1_0" index="0" speed="13.89" length="1.85" shape="-7.34,150.21 -8.62,150.87 -9.02,150.95"/>
    </edge>
    <edge id=":gneJ235_2" function="internal">
        <lane id=":gneJ235_2_0" index="0" speed="13.89" length="3.64" shape="-9.02,150.95 -9.91,151.15 -11.22,151.05 -12.55,150.57"/>
    </edge>
    <edge id=":gneJ236_0" function="internal">
        <lane id=":gneJ236_0_0" index="0" speed="13.89" length="0.10" shape="190.74,121.48 190.65,121.52"/>
    </edge>
    <edge id=":gneJ238_0" function="internal">
        <lane id=":gneJ238_0_0" index="0" speed="13.89" length="0.29" shape="190.76,28.50 190.82,28.56 190.87,28.59 190.92,28.62 191.00,28.66"/>
    </edge>
    <edge id=":gneJ239_0" function="internal">
        <lane id=":gneJ239_0_0" index="0" speed="13.89" length="1.04" shape="150.02,-1.65 150.32,-1.64 150.53,-1.60 150.73,-1.51 150.98,-1.33"/>
    </edge>
    <edge id=":gneJ24_0" function="internal">
        <lane id=":gneJ24_0_0" index="0" speed="13.89" length="10.19" shape="232.27,101.65 229.34,101.91 227.43,102.66 225.62,103.83 222.99,105.35"/>
    </edge>
    <edge id=":gneJ24_1" function="internal">
        <lane id=":gneJ24_1_0" index="0" speed="13.89" length="10.16" shape="232.27,101.65 222.11,101.65"/>
    </edge>
    <edge id=":gneJ25_0" function="internal">
        <lane id=":gneJ25_0_0" index="0" speed="13.89" length="11.63" shape="-111.21,105.29 -114.17,103.94 -116.53,102.77 -118.96,101.96 -122.13,101.65"/>
    </edge>
    <edge id=":gneJ25_1" function="internal">
        <lane id=":gneJ25_1_0" index="0" speed="13.89" length="11.62" shape="-110.51,101.65 -122.13,101.65"/>
    </edge>
    <edge id=":gneJ252_0" function="internal">
        <lane id=":gneJ252_0_0" index="0" speed="13.89" length="7.29" shape="27.43,21.65 24.90,21.84 23.10,22.42 22.01,23.39 21.65,24.75"/>
    </edge>
    <edge id=":gneJ252_1" function="internal">
        <lane id=":gneJ252_1_0" index="0" speed="13.89" length="4.43" shape="19.69,17.81 20.55,18.73 21.16,20.20 21.45,21.75"/>
    </edge>
    <edge id=":gneJ252_2" function="internal">
        <lane id=":gneJ252_2_0" index="0" speed="13.89" length="3.01" shape="21.45,21.75 21.53,22.20 21.65,24.75"/>
    </edge>
    <edge id=":gneJ253_0" function="internal">
        <lane id=":gneJ253_0_0" index="0" speed="13.89" length="6.17" shape="24.75,131.65 22.91,131.59 21.61,131.58 20.40,131.88 18.85,132.75"/>
    </edge>
    <edge id=":gneJ253_1" function="internal">
        <lane id=":gneJ253_1_0" index="0" speed="13.89" length="1.52" shape="21.65,128.53 21.47,129.67 21.32,130.00"/>
    </edge>
    <edge id=":gneJ253_2" function="internal">
        <lane id=":gneJ253_2_0" index="0" speed="13.89" length="3.75" shape="21.32,130.00 20.95,130.76 20.07,131.79 18.85,132.75"/>
    </edge>
    <edge id=":gneJ254_0" function="internal">
        <lane id=":gneJ254_0_0" index="0" speed="13.89" length="5.51" shape="35.37,21.65 33.74,21.84 32.58,22.42 31.88,23.39 31.65,24.75"/>
    </edge>
    <edge id=":gneJ254_1" function="internal">
        <lane id=":gneJ254_1_0" index="0" speed="13.89" length="6.85" shape="35.37,21.65 28.53,21.65"/>
    </edge>
    <edge id=":gneJ254_2" function="internal">
        <lane id=":gneJ254_2_0" index="0" speed="13.89" length="7.23" shape="33.37,17.91 32.28,19.72 31.78,21.11 31.64,22.61 31.65,24.75"/>
    </edge>
    <edge id=":gneJ254_3" function="internal">
        <lane id=":gneJ254_3_0" index="0" speed="13.89" length="2.77" shape="33.37,17.91 32.14,19.55 31.61,20.05"/>
    </edge>
    <edge id=":gneJ254_4" function="internal">
        <lane id=":gneJ254_4_0" index="0" speed="13.89" length="3.57" shape="31.61,20.05 30.92,20.72 29.71,21.42 28.53,21.65"/>
    </edge>
    <edge id=":gneJ255_0" function="internal">
        <lane id=":gneJ255_0_0" index="0" speed="13.89" length="5.99" shape="37.57,131.65 35.76,131.88 34.83,132.58 34.76,133.75 35.57,135.39"/>
    </edge>
    <edge id=":gneJ255_1" function="internal">
        <lane id=":gneJ255_1_0" index="0" speed="13.89" length="9.02" shape="37.57,131.65 28.55,131.65"/>
    </edge>
    <edge id=":gneJ255_2" function="internal">
        <lane id=":gneJ255_2_0" index="0" speed="13.89" length="8.14" shape="31.65,128.55 31.96,130.82 32.79,132.22 34.04,133.49 35.57,135.39"/>
    </edge>
    <edge id=":gneJ255_3" function="internal">
        <lane id=":gneJ255_3_0" index="0" speed="13.89" length="1.54" shape="31.65,128.55 31.46,129.91 31.37,130.05"/>
    </edge>
    <edge id=":gneJ255_4" function="internal">
        <lane id=":gneJ255_4_0" index="0" speed="13.89" length="3.46" shape="31.37,130.05 30.87,130.88 29.91,131.46 28.55,131.65"/>
    </edge>
    <edge id=":gneJ256_0" function="internal">
        <lane id=":gneJ256_0_0" index="0" speed="13.89" length="6.17" shape="42.75,18.85 41.88,20.40 41.58,21.61 41.59,22.91 41.65,24.75"/>
    </edge>
    <edge id=":gneJ256_1" function="internal">
        <lane id=":gneJ256_1_0" index="0" speed="13.89" length="5.28" shape="42.75,18.85 41.79,20.07 40.76,20.95 39.67,21.47 38.53,21.65"/>
    </edge>
    <edge id=":gneJ257_0" function="internal">
        <lane id=":gneJ257_0_0" index="0" speed="13.89" length="6.87" shape="41.65,127.52 41.82,129.49 42.33,130.77 43.18,131.96 44.39,133.61"/>
    </edge>
    <edge id=":gneJ257_1" function="internal">
        <lane id=":gneJ257_1_0" index="0" speed="13.89" length="5.86" shape="41.65,127.52 41.46,129.32 40.88,130.62 39.91,131.39 38.55,131.65"/>
    </edge>
    <edge id=":gneJ258_0" function="internal">
        <lane id=":gneJ258_0_0" index="0" speed="13.89" length="6.17" shape="67.25,131.15 68.12,129.60 68.42,128.39 68.41,127.09 68.35,125.25"/>
    </edge>
    <edge id=":gneJ258_1" function="internal">
        <lane id=":gneJ258_1_0" index="0" speed="13.89" length="5.28" shape="67.25,131.15 68.21,129.93 69.24,129.05 70.33,128.53 71.47,128.35"/>
    </edge>
    <edge id=":gneJ259_0" function="internal">
        <lane id=":gneJ259_0_0" index="0" speed="13.89" length="6.87" shape="68.35,22.48 68.18,20.51 67.67,19.23 66.82,18.04 65.61,16.39"/>
    </edge>
    <edge id=":gneJ259_1" function="internal">
        <lane id=":gneJ259_1_0" index="0" speed="13.89" length="5.86" shape="68.35,22.48 68.54,20.68 69.12,19.38 70.09,18.61 71.45,18.35"/>
    </edge>
    <edge id=":gneJ260_0" function="internal">
        <lane id=":gneJ260_0_0" index="0" speed="13.89" length="5.51" shape="74.63,128.35 76.26,128.16 77.42,127.57 78.12,126.61 78.35,125.25"/>
    </edge>
    <edge id=":gneJ260_1" function="internal">
        <lane id=":gneJ260_1_0" index="0" speed="13.89" length="6.85" shape="74.63,128.35 81.47,128.35"/>
    </edge>
    <edge id=":gneJ260_2" function="internal">
        <lane id=":gneJ260_2_0" index="0" speed="13.89" length="7.23" shape="76.63,132.09 77.72,130.28 78.22,128.89 78.36,127.39 78.35,125.25"/>
    </edge>
    <edge id=":gneJ260_3" function="internal">
        <lane id=":gneJ260_3_0" index="0" speed="13.89" length="2.77" shape="76.63,132.09 77.86,130.45 78.39,129.95"/>
    </edge>
    <edge id=":gneJ260_4" function="internal">
        <lane id=":gneJ260_4_0" index="0" speed="13.89" length="3.57" shape="78.39,129.95 79.08,129.28 80.29,128.58 81.47,128.35"/>
    </edge>
    <edge id=":gneJ261_0" function="internal">
        <lane id=":gneJ261_0_0" index="0" speed="13.89" length="8.14" shape="78.35,21.45 78.04,19.18 77.21,17.78 75.96,16.51 74.43,14.61"/>
    </edge>
    <edge id=":gneJ261_1" function="internal">
        <lane id=":gneJ261_1_0" index="0" speed="13.89" length="1.54" shape="78.35,21.45 78.54,20.09 78.63,19.95"/>
    </edge>
    <edge id=":gneJ261_4" function="internal">
        <lane id=":gneJ261_4_0" index="0" speed="13.89" length="3.46" shape="78.63,19.95 79.12,19.13 80.09,18.54 81.45,18.35"/>
    </edge>
    <edge id=":gneJ261_2" function="internal">
        <lane id=":gneJ261_2_0" index="0" speed="13.89" length="5.99" shape="72.43,18.35 74.24,18.12 75.17,17.42 75.24,16.25 74.43,14.61"/>
    </edge>
    <edge id=":gneJ261_3" function="internal">
        <lane id=":gneJ261_3_0" index="0" speed="13.89" length="9.02" shape="72.43,18.35 81.45,18.35"/>
    </edge>
    <edge id=":gneJ262_0" function="internal">
        <lane id=":gneJ262_0_0" index="0" speed="13.89" length="4.43" shape="90.31,132.19 89.45,131.27 88.84,129.80 88.55,128.25"/>
    </edge>
    <edge id=":gneJ262_2" function="internal">
        <lane id=":gneJ262_2_0" index="0" speed="13.89" length="3.01" shape="88.55,128.25 88.47,127.80 88.35,125.25"/>
    </edge>
    <edge id=":gneJ262_1" function="internal">
        <lane id=":gneJ262_1_0" index="0" speed="13.89" length="7.29" shape="82.57,128.35 85.10,128.16 86.90,127.57 87.99,126.61 88.35,125.25"/>
    </edge>
    <edge id=":gneJ263_0" function="internal">
        <lane id=":gneJ263_0_0" index="0" speed="13.89" length="1.52" shape="88.35,21.47 88.53,20.33 88.68,20.00"/>
    </edge>
    <edge id=":gneJ263_2" function="internal">
        <lane id=":gneJ263_2_0" index="0" speed="13.89" length="3.75" shape="88.68,20.00 89.05,19.24 89.93,18.21 91.15,17.25"/>
    </edge>
    <edge id=":gneJ263_1" function="internal">
        <lane id=":gneJ263_1_0" index="0" speed="13.89" length="6.17" shape="85.25,18.35 87.09,18.41 88.39,18.42 89.60,18.12 91.15,17.25"/>
    </edge>
    <edge id=":gneJ264_0" function="internal">
        <lane id=":gneJ264_0_0" index="0" speed="13.89" length="6.13" shape="117.77,-4.56 119.02,-3.24 119.99,-2.33 121.11,-1.81 122.85,-1.65"/>
    </edge>
    <edge id=":gneJ264_1" function="internal">
        <lane id=":gneJ264_1_0" index="0" speed="13.89" length="5.84" shape="117.34,-0.21 118.80,-1.10 119.91,-1.52 121.12,-1.65 122.85,-1.65"/>
    </edge>
    <edge id=":gneJ266_0" function="internal">
        <lane id=":gneJ266_0_0" index="0" speed="13.89" length="1.26" shape="81.65,-41.35 81.68,-41.03 81.77,-40.73 81.91,-40.46 82.12,-40.21"/>
    </edge>
    <edge id=":gneJ268_0" function="internal">
        <lane id=":gneJ268_0_0" index="0" speed="13.89" length="0.52" shape="61.65,-39.99 61.65,-39.84 61.64,-39.73 61.61,-39.63 61.57,-39.49"/>
    </edge>
    <edge id=":gneJ269_0" function="internal">
        <lane id=":gneJ269_0_0" index="0" speed="13.89" length="0.52" shape="71.65,-39.99 71.65,-39.84 71.64,-39.73 71.61,-39.63 71.57,-39.49"/>
    </edge>
    <edge id=":gneJ270_0" function="internal">
        <lane id=":gneJ270_0_0" index="0" speed="13.89" length="5.57" shape="62.16,-3.78 61.08,-5.00 60.00,-5.40 58.92,-5.00 57.84,-3.78"/>
    </edge>
    <edge id=":gneJ270_1" function="internal">
        <lane id=":gneJ270_1_0" index="0" speed="13.89" length="8.18" shape="62.16,-3.78 60.74,-5.75 59.72,-7.09 58.88,-8.52 58.01,-10.76"/>
    </edge>
    <edge id=":gneJ270_2" function="internal">
        <lane id=":gneJ270_2_0" index="0" speed="13.89" length="8.18" shape="61.99,-10.76 61.12,-8.52 60.28,-7.09 59.26,-5.75 57.84,-3.78"/>
    </edge>
    <edge id=":gneJ270_3" function="internal">
        <lane id=":gneJ270_3_0" index="0" speed="13.89" length="2.68" shape="61.99,-10.76 61.00,-8.52 60.82,-8.38"/>
    </edge>
    <edge id=":gneJ270_4" function="internal">
        <lane id=":gneJ270_4_0" index="0" speed="13.89" length="4.72" shape="60.82,-8.38 60.00,-7.77 59.00,-8.52 58.01,-10.76"/>
    </edge>
    <edge id=":gneJ271_0" function="internal">
        <lane id=":gneJ271_0_0" index="0" speed="13.89" length="5.57" shape="52.16,-3.78 51.08,-5.00 50.00,-5.40 48.92,-5.00 47.84,-3.78"/>
    </edge>
    <edge id=":gneJ271_1" function="internal">
        <lane id=":gneJ271_1_0" index="0" speed="13.89" length="8.18" shape="52.16,-3.78 50.74,-5.75 49.72,-7.09 48.88,-8.52 48.01,-10.76"/>
    </edge>
    <edge id=":gneJ271_2" function="internal">
        <lane id=":gneJ271_2_0" index="0" speed="13.89" length="8.18" shape="51.99,-10.76 51.12,-8.52 50.28,-7.09 49.26,-5.75 47.84,-3.78"/>
    </edge>
    <edge id=":gneJ271_3" function="internal">
        <lane id=":gneJ271_3_0" index="0" speed="13.89" length="2.68" shape="51.99,-10.76 51.00,-8.52 50.82,-8.38"/>
    </edge>
    <edge id=":gneJ271_4" function="internal">
        <lane id=":gneJ271_4_0" index="0" speed="13.89" length="4.72" shape="50.82,-8.38 50.00,-7.77 49.00,-8.52 48.01,-10.76"/>
    </edge>
    <edge id=":gneJ272_0" function="internal">
        <lane id=":gneJ272_0_0" index="0" speed="13.89" length="0.52" shape="48.43,-39.49 48.39,-39.63 48.36,-39.73 48.35,-39.84 48.35,-39.99"/>
    </edge>
    <edge id=":gneJ273_0" function="internal">
        <lane id=":gneJ273_0_0" index="0" speed="13.89" length="0.52" shape="38.43,-39.49 38.39,-39.63 38.36,-39.73 38.35,-39.84 38.35,-39.99"/>
    </edge>
    <edge id=":gneJ274_0" function="internal">
        <lane id=":gneJ274_0_0" index="0" speed="13.89" length="1.26" shape="27.88,-40.21 28.09,-40.46 28.23,-40.73 28.32,-41.03 28.35,-41.35"/>
    </edge>
    <edge id=":gneJ275_0" function="internal">
        <lane id=":gneJ275_0_0" index="0" speed="13.89" length="5.98" shape="-12.85,-1.65 -11.72,-1.83 -10.50,-2.38 -9.18,-3.29 -7.77,-4.56"/>
    </edge>
    <edge id=":gneJ275_1" function="internal">
        <lane id=":gneJ275_1_0" index="0" speed="13.89" length="5.84" shape="-12.85,-1.65 -11.12,-1.65 -9.91,-1.52 -8.80,-1.10 -7.34,-0.21"/>
    </edge>
    <edge id=":gneJ276_0" function="internal">
        <lane id=":gneJ276_0_0" index="0" speed="13.89" length="5.57" shape="57.84,153.78 58.92,155.00 60.00,155.40 61.08,155.00 62.16,153.78"/>
    </edge>
    <edge id=":gneJ276_1" function="internal">
        <lane id=":gneJ276_1_0" index="0" speed="13.89" length="8.18" shape="57.84,153.78 59.26,155.75 60.28,157.09 61.12,158.52 61.99,160.76"/>
    </edge>
    <edge id=":gneJ276_2" function="internal">
        <lane id=":gneJ276_2_0" index="0" speed="13.89" length="8.18" shape="58.01,160.76 58.88,158.52 59.72,157.09 60.74,155.75 62.16,153.78"/>
    </edge>
    <edge id=":gneJ276_3" function="internal">
        <lane id=":gneJ276_3_0" index="0" speed="13.89" length="2.68" shape="58.01,160.76 59.00,158.52 59.18,158.38"/>
    </edge>
    <edge id=":gneJ276_4" function="internal">
        <lane id=":gneJ276_4_0" index="0" speed="13.89" length="4.72" shape="59.18,158.38 60.00,157.77 61.00,158.52 61.99,160.76"/>
    </edge>
    <edge id=":gneJ277_0" function="internal">
        <lane id=":gneJ277_0_0" index="0" speed="13.89" length="5.57" shape="47.84,153.78 48.92,155.00 50.00,155.40 51.08,155.00 52.16,153.78"/>
    </edge>
    <edge id=":gneJ277_1" function="internal">
        <lane id=":gneJ277_1_0" index="0" speed="13.89" length="8.18" shape="47.84,153.78 49.26,155.75 50.28,157.09 51.12,158.52 51.99,160.76"/>
    </edge>
    <edge id=":gneJ277_2" function="internal">
        <lane id=":gneJ277_2_0" index="0" speed="13.89" length="8.18" shape="48.01,160.76 48.88,158.52 49.72,157.09 50.74,155.75 52.16,153.78"/>
    </edge>
    <edge id=":gneJ277_3" function="internal">
        <lane id=":gneJ277_3_0" index="0" speed="13.89" length="2.68" shape="48.01,160.76 49.00,158.52 49.18,158.38"/>
    </edge>
    <edge id=":gneJ277_4" function="internal">
        <lane id=":gneJ277_4_0" index="0" speed="13.89" length="4.72" shape="49.18,158.38 50.00,157.77 51.00,158.52 51.99,160.76"/>
    </edge>
    <edge id=":gneJ282_0" function="internal">
        <lane id=":gneJ282_0_0" index="0" speed="13.89" length="1.26" shape="28.35,191.35 28.32,191.03 28.23,190.73 28.09,190.46 27.88,190.21"/>
    </edge>
    <edge id=":gneJ283_0" function="internal">
        <lane id=":gneJ283_0_0" index="0" speed="13.89" length="6.28" shape="122.60,150.68 120.95,151.49 119.94,152.26 119.05,153.20 117.77,154.56"/>
    </edge>
    <edge id=":gneJ283_1" function="internal">
        <lane id=":gneJ283_1_0" index="0" speed="13.89" length="5.52" shape="122.60,150.68 121.23,151.10 119.90,151.16 118.60,150.86 117.34,150.21"/>
    </edge>
    <edge id=":gneJ284_0" function="internal">
        <lane id=":gneJ284_0_0" index="0" speed="13.89" length="1.26" shape="82.12,190.21 81.91,190.46 81.77,190.73 81.68,191.03 81.65,191.35"/>
    </edge>
    <edge id=":gneJ287_0" function="internal">
        <lane id=":gneJ287_0_0" index="0" speed="13.89" length="25.63" shape="-694.13,48.35 -668.50,48.35"/>
    </edge>
    <edge id=":gneJ287_1" function="internal">
        <lane id=":gneJ287_1_0" index="0" speed="13.89" length="25.62" shape="-693.89,51.75 -688.54,50.92 -681.22,49.78 -673.88,48.78 -668.50,48.35"/>
    </edge>
    <edge id=":gneJ288_0" function="internal">
        <lane id=":gneJ288_0_0" index="0" speed="13.89" length="25.63" shape="-591.50,48.35 -565.87,48.35"/>
    </edge>
    <edge id=":gneJ288_1" function="internal">
        <lane id=":gneJ288_1_0" index="0" speed="13.89" length="25.62" shape="-591.50,48.35 -586.12,48.78 -578.78,49.78 -571.46,50.92 -566.11,51.75"/>
    </edge>
    <edge id=":gneJ289_0" function="internal">
        <lane id=":gneJ289_0_0" index="0" speed="13.89" length="25.63" shape="-544.13,48.35 -518.50,48.35"/>
    </edge>
    <edge id=":gneJ289_1" function="internal">
        <lane id=":gneJ289_1_0" index="0" speed="13.89" length="25.62" shape="-543.89,51.75 -538.54,50.92 -531.22,49.78 -523.88,48.78 -518.50,48.35"/>
    </edge>
    <edge id=":gneJ290_0" function="internal">
        <lane id=":gneJ290_0_0" index="0" speed="13.89" length="25.63" shape="-441.50,48.35 -415.87,48.35"/>
    </edge>
    <edge id=":gneJ290_1" function="internal">
        <lane id=":gneJ290_1_0" index="0" speed="13.89" length="25.62" shape="-441.50,48.35 -436.12,48.78 -428.78,49.78 -421.46,50.92 -416.11,51.75"/>
    </edge>
    <edge id=":gneJ291_0" function="internal">
        <lane id=":gneJ291_0_0" index="0" speed="13.89" length="25.63" shape="-394.13,48.35 -368.50,48.35"/>
    </edge>
    <edge id=":gneJ291_1" function="internal">
        <lane id=":gneJ291_1_0" index="0" speed="13.89" length="25.62" shape="-393.89,51.75 -388.54,50.92 -381.22,49.78 -373.88,48.78 -368.50,48.35"/>
    </edge>
    <edge id=":gneJ292_0" function="internal">
        <lane id=":gneJ292_0_0" index="0" speed="13.89" length="25.62" shape="-693.66,54.95 -688.30,55.78 -680.98,56.92 -673.65,57.92 -668.27,58.35"/>
    </edge>
    <edge id=":gneJ292_1" function="internal">
        <lane id=":gneJ292_1_0" index="0" speed="13.89" length="25.86" shape="-694.13,58.35 -668.27,58.35"/>
    </edge>
    <edge id=":gneJ292_2" function="internal">
        <lane id=":gneJ292_2_0" index="0" speed="13.89" length="25.85" shape="-693.89,61.75 -688.50,60.92 -681.10,59.78 -673.69,58.78 -668.27,58.35"/>
    </edge>
    <edge id=":gneJ293_0" function="internal">
        <lane id=":gneJ293_0_0" index="0" speed="13.89" length="25.39" shape="-591.50,58.35 -586.15,57.92 -578.90,56.92 -571.66,55.78 -566.34,54.95"/>
    </edge>
    <edge id=":gneJ293_1" function="internal">
        <lane id=":gneJ293_1_0" index="0" speed="13.89" length="25.63" shape="-591.50,58.35 -565.87,58.35"/>
    </edge>
    <edge id=":gneJ293_2" function="internal">
        <lane id=":gneJ293_2_0" index="0" speed="13.89" length="25.62" shape="-591.50,58.35 -586.12,58.78 -578.78,59.78 -571.46,60.92 -566.11,61.75"/>
    </edge>
    <edge id=":gneJ294_0" function="internal">
        <lane id=":gneJ294_0_0" index="0" speed="13.89" length="25.62" shape="-543.66,54.95 -538.30,55.78 -530.98,56.92 -523.65,57.92 -518.27,58.35"/>
    </edge>
    <edge id=":gneJ294_1" function="internal">
        <lane id=":gneJ294_1_0" index="0" speed="13.89" length="25.86" shape="-544.13,58.35 -518.27,58.35"/>
    </edge>
    <edge id=":gneJ294_2" function="internal">
        <lane id=":gneJ294_2_0" index="0" speed="13.89" length="25.85" shape="-543.89,61.75 -538.50,60.92 -531.10,59.78 -523.69,58.78 -518.27,58.35"/>
    </edge>
    <edge id=":gneJ295_0" function="internal">
        <lane id=":gneJ295_0_0" index="0" speed="13.89" length="25.39" shape="-441.50,58.35 -436.15,57.92 -428.90,56.92 -421.66,55.78 -416.34,54.95"/>
    </edge>
    <edge id=":gneJ295_1" function="internal">
        <lane id=":gneJ295_1_0" index="0" speed="13.89" length="25.63" shape="-441.50,58.35 -415.87,58.35"/>
    </edge>
    <edge id=":gneJ295_2" function="internal">
        <lane id=":gneJ295_2_0" index="0" speed="13.89" length="25.62" shape="-441.50,58.35 -436.12,58.78 -428.78,59.78 -421.46,60.92 -416.11,61.75"/>
    </edge>
    <edge id=":gneJ296_0" function="internal">
        <lane id=":gneJ296_0_0" index="0" speed="13.89" length="25.62" shape="-393.66,54.95 -388.30,55.78 -380.98,56.92 -373.65,57.92 -368.27,58.35"/>
    </edge>
    <edge id=":gneJ296_1" function="internal">
        <lane id=":gneJ296_1_0" index="0" speed="13.89" length="25.86" shape="-394.13,58.35 -368.27,58.35"/>
    </edge>
    <edge id=":gneJ296_2" function="internal">
        <lane id=":gneJ296_2_0" index="0" speed="13.89" length="25.85" shape="-393.89,61.75 -388.50,60.92 -381.10,59.78 -373.69,58.78 -368.27,58.35"/>
    </edge>
    <edge id=":gneJ298_0" function="internal">
        <lane id=":gneJ298_0_0" index="0" speed="13.89" length="25.62" shape="-693.66,64.95 -688.30,65.78 -680.98,66.92 -673.65,67.92 -668.27,68.35"/>
    </edge>
    <edge id=":gneJ298_1" function="internal">
        <lane id=":gneJ298_1_0" index="0" speed="13.89" length="25.63" shape="-693.90,68.35 -668.27,68.35"/>
    </edge>
    <edge id=":gneJ299_0" function="internal">
        <lane id=":gneJ299_0_0" index="0" speed="13.89" length="25.62" shape="-591.73,68.35 -586.35,67.92 -579.02,66.92 -571.70,65.78 -566.34,64.95"/>
    </edge>
    <edge id=":gneJ299_1" function="internal">
        <lane id=":gneJ299_1_0" index="0" speed="13.89" length="25.63" shape="-591.73,68.35 -566.10,68.35"/>
    </edge>
    <edge id=":gneJ302_0" function="internal">
        <lane id=":gneJ302_0_0" index="0" speed="13.89" length="25.62" shape="-543.66,64.95 -538.30,65.78 -530.98,66.92 -523.65,67.92 -518.27,68.35"/>
    </edge>
    <edge id=":gneJ302_1" function="internal">
        <lane id=":gneJ302_1_0" index="0" speed="13.89" length="25.63" shape="-543.90,68.35 -518.27,68.35"/>
    </edge>
    <edge id=":gneJ303_0" function="internal">
        <lane id=":gneJ303_0_0" index="0" speed="13.89" length="25.62" shape="-441.73,68.35 -436.35,67.92 -429.02,66.92 -421.70,65.78 -416.34,64.95"/>
    </edge>
    <edge id=":gneJ303_1" function="internal">
        <lane id=":gneJ303_1_0" index="0" speed="13.89" length="25.63" shape="-441.73,68.35 -416.10,68.35"/>
    </edge>
    <edge id=":gneJ304_0" function="internal">
        <lane id=":gneJ304_0_0" index="0" speed="13.89" length="25.62" shape="-393.66,64.95 -388.30,65.78 -380.98,66.92 -373.65,67.92 -368.27,68.35"/>
    </edge>
    <edge id=":gneJ304_1" function="internal">
        <lane id=":gneJ304_1_0" index="0" speed="13.89" length="25.63" shape="-393.90,68.35 -368.27,68.35"/>
    </edge>
    <edge id=":gneJ305_0" function="internal">
        <lane id=":gneJ305_0_0" index="0" speed="13.89" length="25.62" shape="-368.27,81.65 -373.65,82.08 -380.98,83.08 -388.30,84.22 -393.66,85.05"/>
    </edge>
    <edge id=":gneJ305_1" function="internal">
        <lane id=":gneJ305_1_0" index="0" speed="13.89" length="25.63" shape="-368.27,81.65 -393.90,81.65"/>
    </edge>
    <edge id=":gneJ306_0" function="internal">
        <lane id=":gneJ306_0_0" index="0" speed="13.89" length="25.62" shape="-416.34,85.05 -421.70,84.22 -429.02,83.08 -436.35,82.08 -441.73,81.65"/>
    </edge>
    <edge id=":gneJ306_1" function="internal">
        <lane id=":gneJ306_1_0" index="0" speed="13.89" length="25.63" shape="-416.10,81.65 -441.73,81.65"/>
    </edge>
    <edge id=":gneJ307_0" function="internal">
        <lane id=":gneJ307_0_0" index="0" speed="13.89" length="25.62" shape="-518.27,81.65 -523.65,82.08 -530.98,83.08 -538.30,84.22 -543.66,85.05"/>
    </edge>
    <edge id=":gneJ307_1" function="internal">
        <lane id=":gneJ307_1_0" index="0" speed="13.89" length="25.63" shape="-518.27,81.65 -543.90,81.65"/>
    </edge>
    <edge id=":gneJ308_0" function="internal">
        <lane id=":gneJ308_0_0" index="0" speed="13.89" length="25.62" shape="-566.34,85.05 -571.70,84.22 -579.02,83.08 -586.35,82.08 -591.73,81.65"/>
    </edge>
    <edge id=":gneJ308_1" function="internal">
        <lane id=":gneJ308_1_0" index="0" speed="13.89" length="25.63" shape="-566.10,81.65 -591.73,81.65"/>
    </edge>
    <edge id=":gneJ309_0" function="internal">
        <lane id=":gneJ309_0_0" index="0" speed="13.89" length="25.62" shape="-668.27,81.65 -673.65,82.08 -680.98,83.08 -688.30,84.22 -693.66,85.05"/>
    </edge>
    <edge id=":gneJ309_1" function="internal">
        <lane id=":gneJ309_1_0" index="0" speed="13.89" length="25.63" shape="-668.27,81.65 -693.90,81.65"/>
    </edge>
    <edge id=":gneJ312_0" function="internal">