<?xml version="1.0" encoding="UTF-8"?>

<!-- generated on 6/25/2018 11:34:57 PM by Netedit Version 0.32.0
<?xml version="1.0" encoding="UTF-8"?>

<configuration xmlns:xsi="http://www.w3.org/2001/XMLSchema-instance" xsi:noNamespaceSchemaLocation="http://sumo.dlr.de/xsd/netconvertConfiguration.xsd">

    <input>
        <sumo-net-file value="C:\Users\abeld\Documents\School\Year%202\Project%202-2\Project_2.2\desktop\assets\Intersection\Cloverleaf\Cloverleaf.net.xml"/>
    </input>

    <output>
        <output-file value="C:\Users\abeld\Documents\School\Year%202\Project%202-2\Project_2.2\desktop\assets\Intersection\Cloverleaf\Cloverleaf.net.xml"/>
        <plain-output-prefix value="C:\Users\abeld\Documents\School\Year%202\Project%202-2\Project_2.2\desktop\assets\Intersection\Cloverleaf\Cloverleaf"/>
    </output>

    <processing>
        <no-turnarounds value="true"/>
        <offset.disable-normalization value="true"/>
        <lefthand value="false"/>
        <junctions.corner-detail value="0"/>
        <rectangular-lane-cut value="false"/>
        <walkingareas value="false"/>
    </processing>

</configuration>
-->

<nodes version="0.27" xmlns:xsi="http://www.w3.org/2001/XMLSchema-instance" xsi:noNamespaceSchemaLocation="http://sumo.dlr.de/xsd/nodes_file.xsd">
    <location netOffset="0.00,0.00" convBoundary="-780.00,-770.00,900.00,920.00" origBoundary="-10000000000.00,-10000000000.00,10000000000.00,10000000000.00" projParameter="!"/>

    <node id=",j,hmnxgx" x="-440.00" y="90.00" type="priority"/>
    <node id="argsbbsdg" x="-510.00" y="60.00" type="priority"/>
    <node id="asdfadf" x="-510.00" y="70.00" type="priority"/>
    <node id="asdfafnsn" x="-440.00" y="80.00" type="priority"/>
    <node id="bngsfgnng" x="630.00" y="90.00" type="priority"/>
    <node id="dghdhd" x="-440.00" y="100.00" type="priority"/>
    <node id="dsghsdgsdfg" x="630.00" y="100.00" type="priority"/>
    <node id="east-out1" x="900.00" y="70.00" type="dead_end"/>
    <node id="east-out2" x="900.00" y="60.00" type="dead_end"/>
    <node id="east-out3" x="900.00" y="50.00" type="dead_end"/>
    <node id="east1" x="900.00" y="80.00" type="dead_end"/>
    <node id="east2" x="900.00" y="90.00" type="dead_end"/>
    <node id="east3" x="900.00" y="100.00" type="dead_end"/>
    <node id="fgsdbxcvb" x="70.00" y="-500.00" type="priority"/>
    <node id="fjfghjhnnvnv" x="40.00" y="650.00" type="priority"/>
    <node id="fjhfhjfhj" x="50.00" y="650.00" type="priority"/>
    <node id="gdhhjhfdhgd" x="550.00" y="50.00" type="priority"/>
    <node id="gjkgjjtytyt" x="60.00" y="570.00" type="priority"/>
    <node id="gjkgjkgjkgjkgkjhk" x="70.00" y="570.00" type="priority"/>
    <node id="gneJ10" x="40.00" y="250.00" type="priority"/>
    <node id="gneJ102" x="480.00" y="80.00" type="priority"/>
    <node id="gneJ103" x="480.00" y="90.00" type="priority"/>
    <node id="gneJ104" x="480.00" y="100.00" type="priority"/>
    <node id="gneJ106" x="120.00" y="-30.00" type="priority"/>
    <node id="gneJ107" x="160.00" y="-10.00" type="priority"/>
    <node id="gneJ108" x="140.00" y="-30.00" type="priority"/>
    <node id="gneJ109" x="130.00" y="110.00" type="priority"/>
    <node id="gneJ11" x="40.00" y="-100.00" type="priority"/>
    <node id="gneJ110" x="-20.00" y="110.00" type="priority"/>
    <node id="gneJ111" x="20.00" y="150.00" type="priority"/>
    <node id="gneJ112" x="20.00" y="0.00" type="priority"/>
    <node id="gneJ113" x="-40.00" y="120.00" type="priority"/>
    <node id="gneJ114" x="-50.00" y="140.00" type="priority"/>
    <node id="gneJ115" x="-50.00" y="160.00" type="priority"/>
    <node id="gneJ116" x="-30.00" y="180.00" type="priority"/>
    <node id="gneJ117" x="-10.00" y="180.00" type="priority"/>
    <node id="gneJ118" x="10.00" y="170.00" type="priority"/>
    <node id="gneJ119" x="100.00" y="170.00" type="priority"/>
    <node id="gneJ12" x="30.00" y="250.00" type="priority"/>
    <node id="gneJ120" x="150.00" y="120.00" type="priority"/>
    <node id="gneJ121" x="120.00" y="180.00" type="priority"/>
    <node id="gneJ122" x="160.00" y="140.00" type="priority"/>
    <node id="gneJ123" x="140.00" y="180.00" type="priority"/>
    <node id="gneJ124" x="160.00" y="160.00" type="priority"/>
    <node id="gneJ126" x="10.00" y="-20.00" type="priority"/>
    <node id="gneJ127" x="-10.00" y="-30.00" type="priority"/>
    <node id="gneJ128" x="-30.00" y="-30.00" type="priority"/>
    <node id="gneJ129" x="-40.00" y="30.00" type="priority"/>
    <node id="gneJ13" x="30.00" y="-100.00" type="priority"/>
    <node id="gneJ130" x="-50.00" y="10.00" type="priority"/>
    <node id="gneJ131" x="-50.00" y="-10.00" type="priority"/>
    <node id="gneJ134" x="-370.00" y="50.00" type="priority"/>
    <node id="gneJ135" x="-370.00" y="60.00" type="priority"/>
    <node id="gneJ136" x="-370.00" y="70.00" type="priority"/>
    <node id="gneJ14" x="-120.00" y="50.00" type="priority"/>
    <node id="gneJ141" x="50.00" y="500.00" type="priority"/>
    <node id="gneJ142" x="40.00" y="500.00" type="priority"/>
    <node id="gneJ143" x="30.00" y="500.00" type="priority"/>
    <node id="gneJ145" x="80.00" y="-350.00" type="priority"/>
    <node id="gneJ146" x="70.00" y="-350.00" type="priority"/>
    <node id="gneJ147" x="60.00" y="-350.00" type="priority"/>
    <node id="gneJ15" x="230.00" y="50.00" type="priority"/>
    <node id="gneJ151" x="-580.00" y="70.00" type="priority"/>
    <node id="gneJ152" x="-580.00" y="60.00" type="priority"/>
    <node id="gneJ153" x="-580.00" y="50.00" type="priority"/>
    <node id="gneJ154" x="-660.00" y="70.00" type="priority"/>
    <node id="gneJ155" x="-660.00" y="60.00" type="priority"/>
    <node id="gneJ156" x="-660.00" y="50.00" type="priority"/>
    <node id="gneJ16" x="-120.00" y="60.00" type="priority"/>
    <node id="gneJ165" x="-730.00" y="70.00" type="priority"/>
    <node id="gneJ17" x="230.00" y="60.00" type="priority"/>
    <node id="gneJ171" x="-730.00" y="60.00" type="priority"/>
    <node id="gneJ175" x="-730.00" y="50.00" type="priority"/>
    <node id="gneJ18" x="-120.00" y="70.00" type="priority"/>
    <node id="gneJ183" x="60.00" y="-570.00" type="priority"/>
    <node id="gneJ184" x="70.00" y="-570.00" type="priority"/>
    <node id="gneJ186" x="60.00" y="-650.00" type="priority"/>
    <node id="gneJ187" x="70.00" y="-650.00" type="priority"/>
    <node id="gneJ188" x="80.00" y="-570.00" type="priority"/>
    <node id="gneJ189" x="60.00" y="-720.00" type="priority"/>
    <node id="gneJ19" x="230.00" y="70.00" type="priority"/>
    <node id="gneJ190" x="70.00" y="-720.00" type="priority"/>
    <node id="gneJ191" x="80.00" y="-720.00" type="priority"/>
    <node id="gneJ194" x="-510.00" y="100.00" type="priority"/>
    <node id="gneJ195" x="-510.00" y="90.00" type="priority"/>
    <node id="gneJ196" x="-510.00" y="80.00" type="priority"/>
    <node id="gneJ197" x="-580.00" y="100.00" type="priority"/>
    <node id="gneJ198" x="-580.00" y="90.00" type="priority"/>
    <node id="gneJ199" x="-580.00" y="80.00" type="priority"/>
    <node id="gneJ2" x="60.00" y="-100.00" type="priority"/>
    <node id="gneJ20" x="230.00" y="80.00" type="priority"/>
    <node id="gneJ200" x="-660.00" y="80.00" type="priority"/>
    <node id="gneJ201" x="-660.00" y="90.00" type="priority"/>
    <node id="gneJ202" x="-660.00" y="100.00" type="priority"/>
    <node id="gneJ203" x="-730.00" y="100.00" type="priority"/>
    <node id="gneJ204" x="-730.00" y="90.00" type="priority"/>
    <node id="gneJ205" x="-730.00" y="80.00" type="priority"/>
    <node id="gneJ21" x="-120.00" y="80.00" type="priority"/>
    <node id="gneJ211" x="80.00" y="-650.00" type="priority"/>
    <node id="gneJ212" x="50.00" y="-500.00" type="priority"/>
    <node id="gneJ213" x="40.00" y="-500.00" type="priority"/>
    <node id="gneJ214" x="30.00" y="-500.00" type="priority"/>
    <node id="gneJ215" x="30.00" y="-570.00" type="priority"/>
    <node id="gneJ216" x="30.00" y="-650.00" type="priority"/>
    <node id="gneJ217" x="30.00" y="-720.00" type="priority"/>
    <node id="gneJ218" x="40.00" y="-570.00" type="priority"/>
    <node id="gneJ219" x="40.00" y="-650.00" type="priority"/>
    <node id="gneJ22" x="230.00" y="90.00" type="priority"/>
    <node id="gneJ220" x="40.00" y="-720.00" type="priority"/>
    <node id="gneJ221" x="50.00" y="-570.00" type="priority"/>
    <node id="gneJ222" x="50.00" y="-650.00" type="priority"/>
    <node id="gneJ223" x="50.00" y="-720.00" type="priority"/>
    <node id="gneJ237" x="700.00" y="100.00" type="priority"/>
    <node id="gneJ238" x="780.00" y="100.00" type="priority"/>
    <node id="gneJ239" x="850.00" y="100.00" type="priority"/>
    <node id="gneJ24" x="230.00" y="100.00" type="priority"/>
    <node id="gneJ242" x="850.00" y="90.00" type="priority"/>
    <node id="gneJ243" x="780.00" y="90.00" type="priority"/>
    <node id="gneJ244" x="700.00" y="90.00" type="priority"/>
    <node id="gneJ246" x="850.00" y="80.00" type="priority"/>
    <node id="gneJ247" x="780.00" y="80.00" type="priority"/>
    <node id="gneJ248" x="700.00" y="80.00" type="priority"/>
    <node id="gneJ249" x="630.00" y="70.00" type="priority"/>
    <node id="gneJ25" x="-120.00" y="100.00" type="priority"/>
    <node id="gneJ250" x="700.00" y="70.00" type="priority"/>
    <node id="gneJ251" x="780.00" y="70.00" type="priority"/>
    <node id="gneJ252" x="850.00" y="70.00" type="priority"/>
    <node id="gneJ254" x="630.00" y="60.00" type="priority"/>
    <node id="gneJ255" x="700.00" y="60.00" type="priority"/>
    <node id="gneJ256" x="780.00" y="60.00" type="priority"/>
    <node id="gneJ257" x="850.00" y="60.00" type="priority"/>
    <node id="gneJ259" x="630.00" y="50.00" type="priority"/>
    <node id="gneJ260" x="700.00" y="50.00" type="priority"/>
    <node id="gneJ261" x="780.00" y="50.00" type="priority"/>
    <node id="gneJ262" x="850.00" y="50.00" type="priority"/>
    <node id="gneJ266" x="80.00" y="650.00" type="priority"/>
    <node id="gneJ267" x="70.00" y="650.00" type="priority"/>
    <node id="gneJ268" x="60.00" y="650.00" type="priority"/>
    <node id="gneJ269" x="80.00" y="720.00" type="priority"/>
    <node id="gneJ270" x="80.00" y="800.00" type="priority"/>
    <node id="gneJ271" x="80.00" y="870.00" type="priority"/>
    <node id="gneJ272" x="70.00" y="720.00" type="priority"/>
    <node id="gneJ273" x="70.00" y="800.00" type="priority"/>
    <node id="gneJ274" x="70.00" y="870.00" type="priority"/>
    <node id="gneJ275" x="60.00" y="720.00" type="priority"/>
    <node id="gneJ276" x="60.00" y="800.00" type="priority"/>
    <node id="gneJ277" x="60.00" y="870.00" type="priority"/>
    <node id="gneJ278" x="50.00" y="870.00" type="priority"/>
    <node id="gneJ279" x="50.00" y="800.00" type="priority"/>
    <node id="gneJ28" x="220.00" y="110.00" type="priority"/>
    <node id="gneJ280" x="50.00" y="720.00" type="priority"/>
    <node id="gneJ281" x="40.00" y="870.00" type="priority"/>
    <node id="gneJ282" x="40.00" y="800.00" type="priority"/>
    <node id="gneJ283" x="40.00" y="720.00" type="priority"/>
    <node id="gneJ284" x="30.00" y="870.00" type="priority"/>
    <node id="gneJ285" x="30.00" y="800.00" type="priority"/>
    <node id="gneJ286" x="30.00" y="720.00" type="priority"/>
    <node id="gneJ29" x="90.00" y="240.00" type="priority"/>
    <node id="gneJ3" x="60.00" y="250.00" type="priority"/>
    <node id="gneJ30" x="20.00" y="240.00" type="priority"/>
    <node id="gneJ31" x="-110.00" y="110.00" type="priority"/>
    <node id="gneJ34" x="90.00" y="-90.00" type="priority"/>
    <node id="gneJ35" x="220.00" y="40.00" type="priority"/>
    <node id="gneJ36" x="-110.00" y="40.00" type="priority"/>
    <node id="gneJ37" x="20.00" y="-90.00" type="priority"/>
    <node id="gneJ38" x="480.00" y="50.00" type="priority"/>
    <node id="gneJ39" x="480.00" y="60.00" type="priority"/>
    <node id="gneJ4" x="70.00" y="-100.00" type="priority"/>
    <node id="gneJ40" x="480.00" y="70.00" type="priority"/>
    <node id="gneJ44" x="-370.00" y="100.00" type="priority"/>
    <node id="gneJ45" x="-120.00" y="90.00" type="priority"/>
    <node id="gneJ46" x="-370.00" y="90.00" type="priority"/>
    <node id="gneJ47" x="-370.00" y="80.00" type="priority"/>
    <node id="gneJ5" x="70.00" y="250.00" type="priority"/>
    <node id="gneJ52" x="-440.00" y="70.00" type="priority"/>
    <node id="gneJ54" x="-440.00" y="60.00" type="priority"/>
    <node id="gneJ56" x="-440.00" y="50.00" type="priority"/>
    <node id="gneJ58" x="550.00" y="80.00" type="priority"/>
    <node id="gneJ6" x="80.00" y="-100.00" type="priority"/>
    <node id="gneJ60" x="550.00" y="90.00" type="priority"/>
    <node id="gneJ62" x="550.00" y="100.00" type="priority"/>
    <node id="gneJ63" x="30.00" y="-350.00" type="priority"/>
    <node id="gneJ64" x="40.00" y="-350.00" type="priority"/>
    <node id="gneJ65" x="50.00" y="-350.00" type="priority"/>
    <node id="gneJ67" x="60.00" y="-420.00" type="priority"/>
    <node id="gneJ69" x="70.00" y="-420.00" type="priority"/>
    <node id="gneJ7" x="80.00" y="250.00" type="priority"/>
    <node id="gneJ71" x="80.00" y="-420.00" type="priority"/>
    <node id="gneJ73" x="80.00" y="500.00" type="priority"/>
    <node id="gneJ74" x="70.00" y="500.00" type="priority"/>
    <node id="gneJ75" x="60.00" y="500.00" type="priority"/>
    <node id="gneJ77" x="50.00" y="570.00" type="priority"/>
    <node id="gneJ79" x="40.00" y="570.00" type="priority"/>
    <node id="gneJ8" x="50.00" y="250.00" type="priority"/>
    <node id="gneJ81" x="30.00" y="570.00" type="priority"/>
    <node id="gneJ82" x="-20.00" y="40.00" type="priority"/>
    <node id="gneJ85" x="130.00" y="40.00" type="priority"/>
    <node id="gneJ86" x="90.00" y="0.00" type="priority"/>
    <node id="gneJ87" x="90.00" y="150.00" type="priority"/>
    <node id="gneJ9" x="50.00" y="-100.00" type="priority"/>
    <node id="gneJ94" x="150.00" y="30.00" type="priority"/>
    <node id="gneJ95" x="100.00" y="-20.00" type="priority"/>
    <node id="gneJ97" x="160.00" y="10.00" type="priority"/>
    <node id="lhkl" x="80.00" y="570.00" type="priority"/>
    <node id="luiyukgmnfbg" x="30.00" y="-420.00" type="priority"/>
    <node id="north-out1" x="60.00" y="920.00" type="dead_end"/>
    <node id="north-out2" x="70.00" y="920.00" type="dead_end"/>
    <node id="north-out3" x="80.00" y="920.00" type="dead_end"/>
    <node id="north1" x="50.00" y="920.00" type="dead_end"/>
    <node id="north2" x="40.00" y="920.00" type="dead_end"/>
    <node id="north3" x="30.00" y="920.00" type="dead_end"/>
    <node id="qwerjdhjfhj" x="30.00" y="650.00" type="priority"/>
    <node id="sdfgsdfgsfg" x="550.00" y="70.00" type="priority"/>
    <node id="sfgsfgsfgs" x="550.00" y="60.00" type="priority"/>
    <node id="sfsgnsns" x="-510.00" y="50.00" type="priority"/>
    <node id="sgfsdfgsdfg" x="630.00" y="80.00" type="priority"/>
    <node id="south-out1" x="50.00" y="-770.00" type="dead_end"/>
    <node id="south-out2" x="40.00" y="-770.00" type="dead_end"/>
    <node id="south-out3" x="30.00" y="-770.00" type="dead_end"/>
    <node id="south1" x="60.00" y="-770.00" type="dead_end"/>
    <node id="south2" x="70.00" y="-770.00" type="dead_end"/>
    <node id="south3" x="80.00" y="-770.00" type="dead_end"/>
    <node id="west-out1" x="-780.00" y="80.00" type="dead_end"/>
    <node id="west-out2" x="-780.00" y="90.00" type="dead_end"/>
    <node id="west-out3" x="-780.00" y="100.00" type="dead_end"/>
    <node id="west1" x="-780.00" y="70.00" type="dead_end"/>
    <node id="west2" x="-780.00" y="60.00" type="dead_end"/>
    <node id="west3" x="-780.00" y="50.00" type="dead_end"/>
    <node id="xbvvbxxxxxx" x="60.00" y="-500.00" type="priority"/>
    <node id="xvbxvcbxbvxvcb" x="80.00" y="-500.00" type="priority"/>
    <node id="xvbxvfnd" x="40.00" y="-420.00" type="priority"/>
    <node id="xxcvbxcvb" x="50.00" y="-420.00" type="priority"/>
</nodes>
