<?xml version="1.0" encoding="UTF-8"?>

<!-- generated on 17/05/2018 14:44:08 by Netedit Version 0.32.0
<?xml version="1.0" encoding="UTF-8"?>

<configuration xmlns:xsi="http://www.w3.org/2001/XMLSchema-instance" xsi:noNamespaceSchemaLocation="http://sumo.dlr.de/xsd/netconvertConfiguration.xsd">

    <input>
        <sumo-net-file value="C:\Users\Abel\Documents\School\Year%202\Project%202-2\Git\Project_2.2\core\assets\MapXmls\AZ\az.net.xml"/>
    </input>

    <output>
        <output-file value="C:\Users\Abel\Documents\School\Year%202\Project%202-2\Git\Project_2.2\core\assets\MapXmls\AZ\az.net.xml"/>
        <plain-output-prefix value="C:\Users\Abel\Documents\School\Year%202\Project%202-2\Git\Project_2.2\core\assets\MapXmls\AZ\Az"/>
    </output>

    <processing>
        <no-turnarounds value="true"/>
        <offset.disable-normalization value="true"/>
        <lefthand value="false"/>
        <junctions.corner-detail value="0"/>
        <rectangular-lane-cut value="false"/>
        <walkingareas value="false"/>
    </processing>

</configuration>
-->

<nodes version="0.27" xmlns:xsi="http://www.w3.org/2001/XMLSchema-instance" xsi:noNamespaceSchemaLocation="http://sumo.dlr.de/xsd/nodes_file.xsd">
    <location netOffset="-408773.96,-3682300.97" convBoundary="0.00,0.00,14464.16,14255.98" origBoundary="-111.982236,33.274715,-111.824639,33.405041" projParameter="+proj=utm +zone=12 +ellps=WGS84 +datum=WGS84 +units=m +no_defs"/>

    <node id="1019377582" x="1021.69" y="11325.76" type="priority"/>
    <node id="1019377584" x="1125.73" y="11325.84" type="priority"/>
    <node id="1019377586" x="1245.42" y="11325.69" type="priority"/>
    <node id="1019377595" x="1421.08" y="11326.90" type="priority"/>
    <node id="1019377598" x="1616.47" y="11327.06" type="priority"/>
    <node id="1019377606" x="1616.27" y="11344.42" type="priority"/>
    <node id="1070070335" x="10123.04" y="11897.97" type="priority"/>
    <node id="1070070346" x="10663.26" y="11604.40" type="priority"/>
    <node id="1070071032" x="10101.02" y="11901.28" type="priority"/>
    <node id="1070071139" x="10589.69" y="11787.29" type="priority"/>
    <node id="1379515822" x="6820.30" y="4841.79" type="priority"/>
    <node id="1445860652" x="12890.52" y="4345.81" type="priority"/>
    <node id="1448545227" x="4825.09" y="6416.76" type="priority"/>
    <node id="1448545228" x="4841.68" y="11167.18" type="priority"/>
    <node id="148874203" x="1146.79" y="9736.11" type="priority"/>
    <node id="155836221" x="1112.92" y="6496.91" type="priority"/>
    <node id="1559837291" x="701.69" y="469.71" type="dead_end"/>
    <node id="1559837570" x="765.44" y="510.49" type="dead_end"/>
    <node id="1559839009" x="0.00" y="702.89" type="dead_end"/>
    <node id="1559839445" x="804.18" y="914.89" type="priority"/>
    <node id="1559839537" x="770.43" y="953.59" type="priority"/>
    <node id="1559839541" x="781.73" y="957.26" type="priority"/>
    <node id="1559839548" x="766.85" y="964.60" type="priority"/>
    <node id="1559839556" x="778.02" y="968.23" type="priority"/>
    <node id="156181842" x="1597.05" y="7112.76" type="priority"/>
    <node id="156181922" x="1035.66" y="7073.66" type="priority"/>
    <node id="1594788066" x="5350.73" y="4476.50" type="priority"/>
    <node id="1594788068" x="5350.44" y="4444.15" type="priority"/>
    <node id="1594788070" x="5350.85" y="4434.21" type="priority"/>
    <node id="1640048196" x="8812.40" y="1881.31" type="priority"/>
    <node id="1640048206" x="9188.04" y="818.83" type="priority"/>
    <node id="1640048215" x="9187.88" y="909.23" type="priority"/>
    <node id="1640048219" x="8524.37" y="2447.53" type="priority"/>
    <node id="1640048233" x="9032.85" y="902.03" type="priority"/>
    <node id="1640048241" x="8428.13" y="1162.39" type="priority"/>
    <node id="1640048244" x="8667.57" y="822.75" type="priority"/>
    <node id="1640048248" x="8873.96" y="1005.35" type="priority"/>
    <node id="1640048250" x="8380.56" y="1146.97" type="priority"/>
    <node id="1640048261" x="8477.44" y="1196.17" type="priority"/>
    <node id="1640048265" x="8872.80" y="818.01" type="priority"/>
    <node id="1640048272" x="8969.52" y="904.61" type="priority"/>
    <node id="1640048274" x="8874.17" y="911.88" type="priority"/>
    <node id="1640048277" x="8680.25" y="910.64" type="priority"/>
    <node id="1640048285" x="9030.77" y="1008.11" type="priority"/>
    <node id="1640048368" x="9347.80" y="1630.12" type="priority"/>
    <node id="1640048397" x="9647.37" y="1942.93" type="priority"/>
    <node id="1640048404" x="8811.19" y="2042.81" type="priority"/>
    <node id="165723999" x="1077.09" y="4434.30" type="right_before_left"/>
    <node id="165724013" x="1070.44" y="4878.46" type="priority"/>
    <node id="1707943530" x="818.40" y="11237.53" type="priority"/>
    <node id="1708661632" x="12882.30" y="900.65" type="priority"/>
    <node id="1708661638" x="12880.30" y="781.58" type="dead_end"/>
    <node id="1708661702" x="12882.80" y="965.01" type="priority"/>
    <node id="1708661727" x="12859.50" y="1091.93" type="priority"/>
    <node id="1708661736" x="12846.46" y="1434.47" type="priority"/>
    <node id="1708661762" x="12885.18" y="1107.63" type="priority"/>
    <node id="1708661767" x="12883.89" y="1089.16" type="priority"/>
    <node id="1708719742" x="12478.29" y="3647.33" type="priority"/>
    <node id="1708719787" x="12889.01" y="5289.04" type="priority"/>
    <node id="1708719877" x="12773.71" y="5653.97" type="priority"/>
    <node id="1708719945" x="12620.00" y="4850.97" type="priority"/>
    <node id="1708719982" x="12958.62" y="3644.99" type="priority"/>
    <node id="1708720005" x="12884.77" y="3072.29" type="priority"/>
    <node id="1708720029" x="12892.23" y="3398.70" type="priority"/>
    <node id="1708720110" x="12896.02" y="2943.88" type="priority"/>
    <node id="1708720216" x="12884.48" y="2728.07" type="priority"/>
    <node id="1708720413" x="12882.70" y="3251.60" type="priority"/>
    <node id="1708720449" x="12889.75" y="5079.59" type="priority"/>
    <node id="1708720471" x="12891.98" y="2817.86" type="priority"/>
    <node id="1708720499" x="12890.46" y="5950.27" type="priority"/>
    <node id="1708720500" x="12889.84" y="5653.03" type="priority"/>
    <node id="1708720534" x="12887.36" y="3386.93" type="priority"/>
    <node id="1708720576" x="13142.15" y="4846.88" type="priority"/>
    <node id="1708766889" x="13091.56" y="11689.27" type="priority"/>
    <node id="1708767113" x="13097.99" y="11898.46" type="priority"/>
    <node id="1708803426" x="13097.94" y="12293.95" type="priority"/>
    <node id="1708803481" x="13098.62" y="12038.71" type="priority"/>
    <node id="1708803497" x="12881.56" y="10906.35" type="priority"/>
    <node id="1708803499" x="12893.11" y="10172.23" type="priority"/>
    <node id="1708803545" x="13137.66" y="10174.30" type="priority"/>
    <node id="1708803827" x="13100.24" y="12548.21" type="dead_end"/>
    <node id="1708803904" x="13099.28" y="12423.82" type="priority"/>
    <node id="1708803935" x="13099.10" y="12162.17" type="priority"/>
    <node id="1708803957" x="13098.34" y="12059.26" type="priority"/>
    <node id="1710536986" x="7911.19" y="3017.17" type="priority"/>
    <node id="1710537505" x="7629.00" y="3232.02" type="priority"/>
    <node id="1710537574" x="7625.13" y="2484.31" type="priority"/>
    <node id="172282015" x="751.42" y="10752.59" type="priority"/>
    <node id="172298569" x="821.37" y="10496.61" type="priority"/>
    <node id="172298651" x="496.15" y="10290.58" type="priority"/>
    <node id="1789501251" x="1558.38" y="1536.33" type="priority"/>
    <node id="1789501257" x="2764.18" y="3244.88" type="priority"/>
    <node id="1789501258" x="2752.67" y="3244.83" type="priority"/>
    <node id="1789501259" x="3195.23" y="3471.40" type="priority"/>
    <node id="1789501261" x="3195.36" y="3488.17" type="priority"/>
    <node id="1789501264" x="3546.54" y="3932.79" type="priority"/>
    <node id="1789501265" x="3540.00" y="3937.77" type="priority"/>
    <node id="1789501266" x="2767.53" y="4983.91" type="priority"/>
    <node id="1789501278" x="2167.25" y="8664.14" type="priority"/>
    <node id="1789501279" x="2176.72" y="8669.81" type="priority"/>
    <node id="1789501280" x="2238.09" y="9714.26" type="priority"/>
    <node id="1789501281" x="2227.35" y="9714.43" type="priority"/>
    <node id="1789501282" x="4000.59" y="9694.96" type="priority"/>
    <node id="1789501284" x="4014.26" y="9695.02" type="priority"/>
    <node id="1789501285" x="3298.89" y="11313.88" type="priority"/>
    <node id="1789501286" x="3318.89" y="11313.80" type="priority"/>
    <node id="1789501287" x="2645.65" y="11921.19" type="priority"/>
    <node id="1789501288" x="2646.44" y="11935.85" type="priority"/>
    <node id="1789501290" x="1851.14" y="12217.59" type="priority"/>
    <node id="1789501292" x="1851.60" y="12243.76" type="priority"/>
    <node id="1789501293" x="1729.23" y="12257.76" type="priority"/>
    <node id="1799680656" x="4274.54" y="4746.40" type="priority"/>
    <node id="1903558441" x="11760.44" y="11078.27" type="priority"/>
    <node id="1909107399" x="12295.99" y="10529.34" type="priority"/>
    <node id="1909107400" x="12207.50" y="10572.20" type="priority"/>
    <node id="1909107412" x="12295.98" y="10550.28" type="priority"/>
    <node id="1909218816" x="11321.21" y="10851.92" type="priority"/>
    <node id="1909218822" x="11538.31" y="10662.38" type="priority"/>
    <node id="1909218827" x="11327.65" y="10783.33" type="priority"/>
    <node id="1916457609" x="11604.29" y="8190.07" type="priority"/>
    <node id="1916457610" x="11604.15" y="8173.28" type="priority"/>
    <node id="1919053975" x="11211.06" y="11798.41" type="priority"/>
    <node id="1922568649" x="11627.20" y="11792.03" type="priority"/>
    <node id="1922568655" x="11622.80" y="11816.68" type="priority"/>
    <node id="1923944292" x="12241.80" y="11540.01" type="priority"/>
    <node id="1923944310" x="12105.13" y="11530.28" type="priority"/>
    <node id="1923944323" x="11993.46" y="11759.59" type="priority"/>
    <node id="1923944335" x="11791.09" y="11900.43" type="priority"/>
    <node id="1923944344" x="11702.57" y="11702.19" type="priority"/>
    <node id="1923944369" x="11678.16" y="11701.83" type="priority"/>
    <node id="1923944370" x="12243.02" y="11625.42" type="priority"/>
    <node id="1923944371" x="12220.59" y="11454.74" type="priority"/>
    <node id="1923944376" x="11797.19" y="11724.19" type="priority"/>
    <node id="1931545853" x="10508.27" y="5808.82" type="priority"/>
    <node id="1934015085" x="11125.26" y="11822.77" type="priority"/>
    <node id="1934015086" x="11129.70" y="11834.51" type="priority"/>
    <node id="1934015087" x="11041.86" y="11852.81" type="priority"/>
    <node id="1934015088" x="11050.89" y="11870.66" type="priority"/>
    <node id="1945648551" x="11265.28" y="1115.26" type="priority"/>
    <node id="1945648560" x="11264.30" y="1196.97" type="priority"/>
    <node id="1945679658" x="8052.98" y="5712.05" type="priority"/>
    <node id="1968837332" x="7362.34" y="2471.94" type="dead_end"/>
    <node id="1996293208" x="8713.32" y="8879.06" type="priority"/>
    <node id="1996293283" x="8713.35" y="8897.55" type="priority"/>
    <node id="2001509698" x="5632.29" y="2429.49" type="priority"/>
    <node id="2064159371" x="9673.46" y="8879.60" type="priority"/>
    <node id="2064159372" x="9673.30" y="8892.24" type="priority"/>
    <node id="2064159374" x="11296.69" y="8902.68" type="priority"/>
    <node id="2090600846" x="654.55" y="3269.80" type="priority"/>
    <node id="2090600847" x="642.30" y="3269.94" type="priority"/>
    <node id="2090600848" x="717.82" y="3270.24" type="priority"/>
    <node id="2090644821" x="615.88" y="4859.58" type="priority"/>
    <node id="2090644823" x="727.61" y="4859.09" type="priority"/>
    <node id="2090644830" x="684.10" y="4859.29" type="priority"/>
    <node id="2093037284" x="6423.87" y="5066.42" type="priority"/>
    <node id="2093037288" x="6405.00" y="3039.60" type="priority"/>
    <node id="2093037289" x="6407.15" y="2825.57" type="priority"/>
    <node id="2093037290" x="6415.47" y="4026.26" type="priority"/>
    <node id="2093037292" x="6408.47" y="2876.94" type="priority"/>
    <node id="2093037295" x="6420.92" y="4843.26" type="priority"/>
    <node id="2093037296" x="6403.07" y="4025.86" type="priority"/>
    <node id="2093037299" x="6395.59" y="1758.61" type="priority"/>
    <node id="2093037300" x="6401.90" y="2432.95" type="priority"/>
    <node id="2093037301" x="6393.91" y="1663.26" type="priority"/>
    <node id="2093037302" x="6396.20" y="1772.99" type="priority"/>
    <node id="2093037303" x="6425.84" y="5280.14" type="priority"/>
    <node id="2093037304" x="6397.91" y="2047.42" type="priority"/>
    <node id="2093037308" x="6400.63" y="3607.76" type="priority"/>
    <node id="2093037309" x="6405.50" y="3221.49" type="priority"/>
    <node id="2093037311" x="6418.14" y="4329.86" type="priority"/>
    <node id="2093037313" x="6427.70" y="5524.12" type="priority"/>
    <node id="2093037314" x="6404.73" y="2691.12" type="priority"/>
    <node id="2093037315" x="6413.16" y="3554.88" type="priority"/>
    <node id="2093037317" x="6401.85" y="3877.75" type="priority"/>
    <node id="2093037318" x="6411.82" y="3608.48" type="priority"/>
    <node id="2093037320" x="6409.65" y="4843.26" type="priority"/>
    <node id="2093037321" x="6413.09" y="3877.54" type="priority"/>
    <node id="2093037322" x="6419.01" y="4485.45" type="priority"/>
    <node id="2093037323" x="6404.74" y="3123.17" type="priority"/>
    <node id="2093037324" x="6393.41" y="3221.17" type="priority"/>
    <node id="2093047971" x="10051.90" y="8946.68" type="priority"/>
    <node id="2107181695" x="7212.11" y="1672.28" type="priority"/>
    <node id="2107181699" x="7223.72" y="1768.52" type="priority"/>
    <node id="2107181717" x="7228.68" y="2020.18" type="priority"/>
    <node id="2107181792" x="7627.96" y="2349.35" type="priority"/>
    <node id="2107181804" x="7268.80" y="2353.89" type="priority"/>
    <node id="2107181809" x="7627.87" y="2363.95" type="priority"/>
    <node id="2107181812" x="7674.82" y="2369.26" type="priority"/>
    <node id="2107181821" x="7307.44" y="2410.25" type="priority"/>
    <node id="2107181823" x="7299.12" y="2416.98" type="priority"/>
    <node id="2107181824" x="7315.55" y="2418.47" type="priority"/>
    <node id="2107181825" x="7306.66" y="2426.19" type="priority"/>
    <node id="2107181831" x="7893.32" y="2430.13" type="priority"/>
    <node id="2107181837" x="7371.10" y="2463.05" type="dead_end"/>
    <node id="2107182464" x="7172.14" y="3237.26" type="priority"/>
    <node id="2107217900" x="7217.89" y="2171.57" type="priority"/>
    <node id="2107217914" x="7630.86" y="2168.90" type="priority"/>
    <node id="2107217930" x="7629.14" y="2265.10" type="priority"/>
    <node id="2107218023" x="7913.03" y="2430.96" type="priority"/>
    <node id="2107218026" x="8022.47" y="2435.38" type="priority"/>
    <node id="2107218121" x="7169.79" y="3137.69" type="priority"/>
    <node id="2107218134" x="7180.60" y="3158.29" type="priority"/>
    <node id="2139420451" x="775.63" y="4858.71" type="priority"/>
    <node id="2139420452" x="818.23" y="4858.66" type="priority"/>
    <node id="2139420455" x="3220.60" y="4837.23" type="priority"/>
    <node id="2139420457" x="1683.61" y="4851.70" type="priority"/>
    <node id="2139420458" x="2806.65" y="4842.25" type="priority"/>
    <node id="2139420463" x="1576.23" y="4854.71" type="priority"/>
    <node id="2139420468" x="1069.76" y="4860.86" type="priority"/>
    <node id="2139420477" x="2411.05" y="4849.92" type="priority"/>
    <node id="2139420484" x="3620.32" y="4840.00" type="priority"/>
    <node id="2139420488" x="1990.98" y="4856.34" type="priority"/>
    <node id="2139420491" x="2806.86" y="4849.94" type="priority"/>
    <node id="2139420496" x="5246.82" y="4830.17" type="priority"/>
    <node id="2139420497" x="5189.98" y="4830.68" type="priority"/>
    <node id="2139420499" x="5424.24" y="4829.39" type="priority"/>
    <node id="2139420502" x="5628.97" y="4828.45" type="priority"/>
    <node id="2139420503" x="5712.58" y="4827.86" type="priority"/>
    <node id="2139420505" x="4023.45" y="4843.49" type="priority"/>
    <node id="2139420506" x="1069.88" y="4871.95" type="priority"/>
    <node id="2139420508" x="4415.54" y="4840.80" type="priority"/>
    <node id="2139420510" x="3620.39" y="4848.17" type="priority"/>
    <node id="2139420514" x="4833.58" y="4838.09" type="priority"/>
    <node id="2139420518" x="4632.12" y="4840.42" type="priority"/>
    <node id="2139420519" x="1991.10" y="4864.40" type="priority"/>
    <node id="2139420520" x="1679.29" y="4867.46" type="priority"/>
    <node id="2139420522" x="6024.80" y="4830.33" type="priority"/>
    <node id="2139420530" x="6409.64" y="4828.32" type="priority"/>
    <node id="2139420532" x="6420.97" y="4828.32" type="priority"/>
    <node id="2139420541" x="4415.61" y="4848.94" type="priority"/>
    <node id="2139420545" x="6619.65" y="4831.08" type="priority"/>
    <node id="2139420549" x="6024.76" y="4837.61" type="priority"/>
    <node id="2139420551" x="6820.10" y="4833.13" type="priority"/>
    <node id="2139420559" x="7037.14" y="4835.23" type="priority"/>
    <node id="2139420566" x="7221.42" y="4837.83" type="priority"/>
    <node id="2139420572" x="7630.91" y="4842.63" type="priority"/>
    <node id="2139420573" x="4832.99" y="4867.73" type="priority"/>
    <node id="2139420576" x="7958.69" y="4841.48" type="priority"/>
    <node id="2139420577" x="7938.73" y="4841.90" type="priority"/>
    <node id="2139420583" x="8045.10" y="4842.12" type="priority"/>
    <node id="2139420586" x="8061.99" y="4842.44" type="priority"/>
    <node id="2139420591" x="8427.79" y="4851.09" type="priority"/>
    <node id="2139420596" x="7784.83" y="4859.89" type="priority"/>
    <node id="2139420598" x="8820.27" y="4853.88" type="priority"/>
    <node id="2139420608" x="8821.43" y="4860.14" type="priority"/>
    <node id="2139420609" x="9236.36" y="4856.75" type="priority"/>
    <node id="2139420618" x="11624.16" y="4856.45" type="priority"/>
    <node id="2139420620" x="9652.20" y="4858.41" type="priority"/>
    <node id="2139420623" x="10225.88" y="4854.98" type="priority"/>
    <node id="2139420628" x="10455.48" y="4854.32" type="priority"/>
    <node id="2139420629" x="9912.08" y="4858.86" type="priority"/>
    <node id="2139420632" x="10956.35" y="4851.74" type="priority"/>
    <node id="2139420633" x="10856.16" y="4851.46" type="priority"/>
    <node id="2139420644" x="11058.93" y="4851.19" type="priority"/>
    <node id="2139420653" x="9030.41" y="4870.95" type="priority"/>
    <node id="2139420655" x="12890.26" y="4847.99" type="priority"/>
    <node id="2139420669" x="11402.87" y="4856.39" type="priority"/>
    <node id="2139420674" x="11812.12" y="4855.95" type="priority"/>
    <node id="2139420676" x="12073.29" y="4855.18" type="priority"/>
    <node id="2139420683" x="11868.86" y="4855.59" type="priority"/>
    <node id="2139420685" x="11366.07" y="4856.06" type="priority"/>
    <node id="2139420953" x="681.90" y="6468.71" type="priority"/>
    <node id="2139420957" x="703.83" y="6468.74" type="priority"/>
    <node id="2139420960" x="817.26" y="6468.95" type="priority"/>
    <node id="2139420964" x="749.21" y="6468.50" type="priority"/>
    <node id="2139420972" x="794.12" y="6468.75" type="priority"/>
    <node id="2139420989" x="512.74" y="6476.44" type="dead_end"/>
    <node id="2139421019" x="1112.83" y="6481.25" type="priority"/>
    <node id="2139421034" x="510.51" y="6493.21" type="dead_end"/>
    <node id="2139733340" x="1561.00" y="3261.38" type="priority"/>
    <node id="2147854633" x="12866.19" y="10965.91" type="priority"/>
    <node id="2147854635" x="12879.71" y="10966.42" type="priority"/>
    <node id="2166468299" x="3161.73" y="1334.60" type="priority"/>
    <node id="2166468552" x="3162.65" y="1456.75" type="priority"/>
    <node id="2166468560" x="3174.80" y="1466.13" type="priority"/>
    <node id="2166468572" x="3162.79" y="1466.33" type="priority"/>
    <node id="2166468820" x="3167.87" y="1612.90" type="priority"/>
    <node id="2166468875" x="3183.04" y="1715.13" type="priority"/>
    <node id="2166468917" x="1556.66" y="1858.96" type="priority"/>
    <node id="2212084213" x="11872.44" y="6460.99" type="priority"/>
    <node id="2216572842" x="12650.93" y="7780.08" type="priority"/>
    <node id="2216572963" x="12463.03" y="7246.23" type="priority"/>
    <node id="2216573064" x="11925.36" y="8018.02" type="priority"/>
    <node id="2216573086" x="12472.93" y="7213.58" type="priority"/>
    <node id="2216654800" x="11508.63" y="8085.65" type="priority"/>
    <node id="2258041222" x="3168.96" y="1844.07" type="priority"/>
    <node id="2258041225" x="3169.32" y="1926.73" type="priority"/>
    <node id="2258041233" x="3172.67" y="2249.75" type="priority"/>
    <node id="2258041236" x="3175.80" y="2779.35" type="priority"/>
    <node id="2258041241" x="3169.62" y="1831.88" type="priority"/>
    <node id="2258041243" x="3173.95" y="2473.29" type="priority"/>
    <node id="2258041246" x="3177.85" y="3019.68" type="priority"/>
    <node id="2262809755" x="13181.72" y="10173.34" type="priority"/>
    <node id="2262844387" x="9648.95" y="4285.52" type="priority"/>
    <node id="2262844607" x="9650.19" y="4515.01" type="priority"/>
    <node id="2262844800" x="11288.96" y="8263.62" type="priority"/>
    <node id="2262844932" x="11298.32" y="8723.46" type="priority"/>
    <node id="2262867760" x="10047.31" y="3402.60" type="priority"/>
    <node id="2262867870" x="10070.83" y="4856.86" type="priority"/>
    <node id="2262890758" x="6768.85" y="3226.85" type="priority"/>
    <node id="2262890895" x="7841.70" y="3709.37" type="priority"/>
    <node id="2262891113" x="8450.45" y="4103.20" type="right_before_left"/>
    <node id="2262891118" x="8412.76" y="4114.92" type="right_before_left"/>
    <node id="2262891120" x="8451.41" y="4114.58" type="right_before_left"/>
    <node id="2262891122" x="8490.14" y="4115.14" type="right_before_left"/>
    <node id="2262891135" x="8413.46" y="4207.06" type="right_before_left"/>
    <node id="2262891137" x="8490.22" y="4207.37" type="right_before_left"/>
    <node id="2262891139" x="8451.85" y="4207.22" type="right_before_left"/>
    <node id="2262891167" x="8412.71" y="4299.99" type="right_before_left"/>
    <node id="2262891169" x="8490.38" y="4299.84" type="right_before_left"/>
    <node id="2262891171" x="8452.24" y="4299.74" type="right_before_left"/>
    <node id="2262891203" x="8413.62" y="4392.03" type="right_before_left"/>
    <node id="2262891205" x="8451.78" y="4392.04" type="right_before_left"/>
    <node id="2262891206" x="8490.39" y="4392.06" type="right_before_left"/>
    <node id="2262911699" x="5024.19" y="4038.02" type="priority"/>
    <node id="2262911731" x="5028.60" y="4072.11" type="priority"/>
    <node id="2262911853" x="4750.19" y="4453.53" type="priority"/>
    <node id="2262911863" x="4754.29" y="4543.80" type="priority"/>
    <node id="2262911865" x="4641.11" y="4545.43" type="priority"/>
    <node id="2262911874" x="4821.16" y="4675.79" type="priority"/>
    <node id="2262911881" x="4643.68" y="4710.08" type="priority"/>
    <node id="2263054740" x="2113.53" y="8945.42" type="priority"/>
    <node id="2263054772" x="2058.68" y="9029.62" type="priority"/>
    <node id="2263110857" x="2107.22" y="5882.42" type="priority"/>
    <node id="2263110858" x="2039.66" y="5884.40" type="priority"/>
    <node id="2263110866" x="2107.72" y="5950.40" type="priority"/>
    <node id="2263110867" x="2178.46" y="5950.35" type="priority"/>
    <node id="2263110868" x="2252.82" y="5950.31" type="priority"/>
    <node id="2263110869" x="2323.70" y="5950.27" type="priority"/>
    <node id="2263110875" x="2038.41" y="5960.81" type="priority"/>
    <node id="2263110887" x="2039.13" y="6061.87" type="priority"/>
    <node id="2263110889" x="2108.56" y="6063.68" type="priority"/>
    <node id="2263110890" x="2322.93" y="6062.02" type="priority"/>
    <node id="2263110896" x="2253.26" y="6066.34" type="priority"/>
    <node id="2263218326" x="6991.07" y="9041.94" type="priority"/>
    <node id="2263218327" x="6892.77" y="9042.79" type="priority"/>
    <node id="2263218328" x="6447.61" y="9048.30" type="priority"/>
    <node id="2263218333" x="7100.60" y="9049.44" type="priority"/>
    <node id="2263218338" x="6892.40" y="9073.54" type="priority"/>
    <node id="2263218341" x="7090.33" y="9078.12" type="priority"/>
    <node id="2263218345" x="6992.75" y="9089.66" type="priority"/>
    <node id="2281493750" x="4628.36" y="4039.55" type="priority"/>
    <node id="2281493752" x="4644.63" y="4039.56" type="priority"/>
    <node id="2290490027" x="954.33" y="9767.17" type="priority"/>
    <node id="2290490031" x="882.97" y="9791.05" type="priority"/>
    <node id="2291377430" x="1024.38" y="11743.58" type="priority"/>
    <node id="2299937160" x="1526.92" y="11345.09" type="priority"/>
    <node id="2301213354" x="417.18" y="8092.53" type="dead_end"/>
    <node id="2301213362" x="615.64" y="8095.16" type="priority"/>
    <node id="2301213370" x="709.65" y="8095.19" type="priority"/>
    <node id="2301213371" x="727.15" y="8095.33" type="priority"/>
    <node id="2301213375" x="878.32" y="8094.62" type="priority"/>
    <node id="2301213420" x="1050.01" y="8113.76" type="priority"/>
    <node id="2301213430" x="863.13" y="8119.74" type="priority"/>
    <node id="2301448826" x="1604.64" y="7960.65" type="priority"/>
    <node id="2301557249" x="1822.69" y="8110.08" type="priority"/>
    <node id="2302527460" x="1180.82" y="4859.23" type="priority"/>
    <node id="2303360521" x="1349.78" y="4855.87" type="priority"/>
    <node id="2303360525" x="1785.98" y="4855.04" type="priority"/>
    <node id="2303360527" x="1350.13" y="4869.83" type="priority"/>
    <node id="2303360531" x="1785.43" y="4868.52" type="priority"/>
    <node id="2303360533" x="1235.56" y="4874.24" type="priority"/>
    <node id="2303360938" x="795.52" y="5272.75" type="priority"/>
    <node id="2303399433" x="1639.07" y="4868.41" type="priority"/>
    <node id="2303754797" x="1028.50" y="3258.74" type="priority"/>
    <node id="2303754833" x="825.63" y="3429.61" type="priority"/>
    <node id="2303754841" x="823.08" y="3443.68" type="right_before_left"/>
    <node id="2303895566" x="1627.03" y="8418.62" type="priority"/>
    <node id="2306298399" x="572.86" y="9723.87" type="dead_end"/>
    <node id="2306298401" x="565.22" y="9733.64" type="dead_end"/>
    <node id="2306298410" x="805.85" y="9758.62" type="priority"/>
    <node id="2306298412" x="865.99" y="9768.53" type="priority"/>
    <node id="2306298415" x="890.55" y="9780.54" type="priority"/>
    <node id="2306298418" x="907.91" y="9792.04" type="priority"/>
    <node id="2306298430" x="510.19" y="9843.04" type="priority"/>
    <node id="2306298511" x="679.34" y="10173.63" type="priority"/>
    <node id="2306298543" x="905.33" y="10268.93" type="priority"/>
    <node id="2306298567" x="925.97" y="10348.90" type="priority"/>
    <node id="2306298576" x="925.16" y="10370.95" type="priority"/>
    <node id="2306298594" x="920.35" y="10398.78" type="priority"/>
    <node id="2306298710" x="823.11" y="10506.18" type="priority"/>
    <node id="2306298711" x="808.56" y="10510.80" type="priority"/>
    <node id="2306298749" x="618.56" y="10595.56" type="priority"/>
    <node id="2306298771" x="611.19" y="10627.33" type="priority"/>
    <node id="2306298825" x="621.18" y="10743.56" type="priority"/>
    <node id="2306298863" x="624.98" y="10939.59" type="priority"/>
    <node id="2307240714" x="699.95" y="9218.30" type="priority"/>
    <node id="2307240721" x="699.41" y="9223.30" type="priority"/>
    <node id="2307240824" x="444.50" y="9469.10" type="priority"/>
    <node id="2307241035" x="661.94" y="9617.37" type="priority"/>
    <node id="2307241055" x="672.23" y="9628.06" type="priority"/>
    <node id="2307241138" x="719.94" y="9705.32" type="priority"/>
    <node id="2307241195" x="629.66" y="10071.57" type="priority"/>
    <node id="2307241204" x="640.31" y="10089.69" type="priority"/>
    <node id="2307241239" x="675.20" y="10166.45" type="priority"/>
    <node id="2307241241" x="673.83" y="10169.86" type="priority"/>
    <node id="2308348401" x="806.07" y="11237.03" type="priority"/>
    <node id="2308348403" x="806.26" y="11244.78" type="priority"/>
    <node id="2331405538" x="1595.21" y="6927.14" type="priority"/>
    <node id="2331735637" x="1601.34" y="7593.07" type="priority"/>
    <node id="2367837824" x="3168.91" y="1732.48" type="priority"/>
    <node id="2367837840" x="2898.44" y="2782.14" type="priority"/>
    <node id="2367837849" x="3177.65" y="3244.14" type="priority"/>
    <node id="2367837856" x="3182.67" y="3460.92" type="priority"/>
    <node id="2367837859" x="3183.34" y="3487.97" type="priority"/>
    <node id="2367837862" x="3187.63" y="3715.25" type="priority"/>
    <node id="2367837864" x="3190.00" y="3894.17" type="priority"/>
    <node id="2367837870" x="3207.35" y="4042.66" type="priority"/>
    <node id="2367837872" x="3193.76" y="4043.05" type="priority"/>
    <node id="2367837876" x="3195.44" y="4161.91" type="priority"/>
    <node id="2367837880" x="3200.10" y="4398.17" type="priority"/>
    <node id="2367837889" x="3204.58" y="4661.79" type="priority"/>
    <node id="2367837895" x="3208.33" y="4837.27" type="priority"/>
    <node id="2367837904" x="3208.26" y="4852.22" type="priority"/>
    <node id="2367837912" x="3213.93" y="5012.86" type="priority"/>
    <node id="2374234397" x="12864.83" y="1426.99" type="priority"/>