<?xml version="1.0" encoding="UTF-8"?>

<!-- generated on 6/25/2018 12:18:45 PM by Netedit Version 0.32.0
<?xml version="1.0" encoding="UTF-8"?>

<configuration xmlns:xsi="http://www.w3.org/2001/XMLSchema-instance" xsi:noNamespaceSchemaLocation="http://sumo.dlr.de/xsd/netconvertConfiguration.xsd">

    <input>
        <sumo-net-file value="C:\Users\abeld\Downloads\Intersection\Cloverleaf\cloverleaf%20-%20hand.net.xml"/>
    </input>

    <output>
        <output-file value="C:\Users\abeld\Downloads\Intersection\Cloverleaf\cloverleaf%20-%20hand.net.xml"/>
        <plain-output-prefix value="C:\Users\abeld\Downloads\Intersection\Cloverleaf\Cloverleaf"/>
    </output>

    <processing>
        <no-turnarounds value="true"/>
        <offset.disable-normalization value="true"/>
        <lefthand value="false"/>
        <junctions.corner-detail value="0"/>
        <rectangular-lane-cut value="false"/>
        <walkingareas value="false"/>
    </processing>

</configuration>
-->

<connections version="0.27" xmlns:xsi="http://www.w3.org/2001/XMLSchema-instance" xsi:noNamespaceSchemaLocation="http://sumo.dlr.de/xsd/connections_file.xsd">
    <connection from="gneE1" to="gneE60" fromLane="0" toLane="0"/>

    <connection from="gneE10" to="gneE41" fromLane="0" toLane="0"/>

    <connection from="gneE100" to="gneE106" fromLane="0" toLane="0"/>

    <connection from="gneE101" to="gneE103" fromLane="0" toLane="0"/>

    <connection from="gneE102" to="gneE104" fromLane="0" toLane="0"/>

    <connection from="gneE103" to="gneE10" fromLane="0" toLane="0"/>

    <connection from="gneE104" to="gneE11" fromLane="0" toLane="0"/>

    <connection from="gneE106" to="gneE16" fromLane="0" toLane="0"/>
    <connection from="gneE106" to="gneE12" fromLane="0" toLane="0"/>

    <connection from="gneE107" to="gneE81" fromLane="0" toLane="0"/>

    <connection from="gneE108" to="gneE109" fromLane="0" toLane="0"/>

    <connection from="gneE109" to="gneE110" fromLane="0" toLane="0"/>

    <connection from="gneE110" to="gneE107" fromLane="0" toLane="0"/>

    <connection from="gneE111" to="gneE112" fromLane="0" toLane="0"/>

    <connection from="gneE112" to="gneE117" fromLane="0" toLane="0"/>
    <connection from="gneE112" to="gneE113" fromLane="0" toLane="0"/>

    <connection from="gneE113" to="gneE21" fromLane="0" toLane="0"/>

    <connection from="gneE114" to="gneE115" fromLane="0" toLane="0"/>

    <connection from="gneE115" to="gneE132" fromLane="0" toLane="0"/>
    <connection from="gneE115" to="gneE116" fromLane="0" toLane="0"/>

    <connection from="gneE116" to="gneE28" fromLane="0" toLane="0"/>

    <connection from="gneE117" to="gneE118" fromLane="0" toLane="0"/>

    <connection from="gneE118" to="gneE119" fromLane="0" toLane="0"/>

    <connection from="gneE119" to="gneE120" fromLane="0" toLane="0"/>

    <connection from="gneE12" to="gneE39" fromLane="0" toLane="0"/>

    <connection from="gneE120" to="gneE121" fromLane="0" toLane="0"/>

    <connection from="gneE121" to="gneE122" fromLane="0" toLane="0"/>

    <connection from="gneE122" to="gneE123" fromLane="0" toLane="0"/>

    <connection from="gneE123" to="gneE115" fromLane="0" toLane="0"/>

    <connection from="gneE124" to="gneE126" fromLane="0" toLane="0"/>

    <connection from="gneE125" to="gneE112" fromLane="0" toLane="0"/>

    <connection from="gneE126" to="gneE128" fromLane="0" toLane="0"/>

    <connection from="gneE127" to="gneE125" fromLane="0" toLane="0"/>

    <connection from="gneE128" to="gneE129" fromLane="0" toLane="0"/>

    <connection from="gneE129" to="gneE131" fromLane="0" toLane="0"/>

    <connection from="gneE131" to="gneE127" fromLane="0" toLane="0"/>

    <connection from="gneE132" to="gneE133" fromLane="0" toLane="0"/>

    <connection from="gneE133" to="gneE134" fromLane="0" toLane="0"/>

    <connection from="gneE134" to="gneE138" fromLane="0" toLane="0"/>

    <connection from="gneE135" to="gneE69" fromLane="0" toLane="0"/>

    <connection from="gneE136" to="gneE135" fromLane="0" toLane="0"/>

    <connection from="gneE137" to="gneE136" fromLane="0" toLane="0"/>

    <connection from="gneE138" to="gneE137" fromLane="0" toLane="0"/>

    <connection from="gneE140" to="gneE145" fromLane="0" toLane="0"/>

    <connection from="gneE141" to="gneE144" fromLane="0" toLane="0"/>

    <connection from="gneE142" to="gneE143" fromLane="0" toLane="0"/>

    <connection from="gneE143" to="gneE9" fromLane="0" toLane="0"/>

    <connection from="gneE144" to="gneE8" fromLane="0" toLane="0"/>

    <connection from="gneE145" to="gneE26" fromLane="0" toLane="0"/>
    <connection from="gneE145" to="gneE7" fromLane="0" toLane="0"/>

    <connection from="gneE148" to="gneE154" fromLane="0" toLane="0"/>

    <connection from="gneE149" to="gneE153" fromLane="0" toLane="0"/>

    <connection from="gneE150" to="gneE152" fromLane="0" toLane="0"/>

    <connection from="gneE152" to="gneE19" fromLane="0" toLane="0"/>
    <connection from="gneE152" to="gneE6" fromLane="0" toLane="0"/>

    <connection from="gneE153" to="gneE5" fromLane="0" toLane="0"/>

    <connection from="gneE154" to="gneE4" fromLane="0" toLane="0"/>

    <connection from="gneE155" to="gneE158" fromLane="0" toLane="0"/>

    <connection from="gneE156" to="gneE159" fromLane="0" toLane="0"/>

    <connection from="gneE157" to="gneE160" fromLane="0" toLane="0"/>

    <connection from="gneE158" to="gneE23" fromLane="0" toLane="0"/>
    <connection from="gneE158" to="gneE3" fromLane="0" toLane="0"/>

    <connection from="gneE159" to="gneE2" fromLane="0" toLane="0"/>

    <connection from="gneE16" to="gneE17" fromLane="0" toLane="0"/>
    <connection from="gneE16" to="gneE111" fromLane="0" toLane="0"/>

    <connection from="gneE160" to="gneE1" fromLane="0" toLane="0"/>

    <connection from="gneE162" to="gneE159" fromLane="0" toLane="0"/>

    <connection from="gneE163" to="gneE158" fromLane="0" toLane="0"/>

    <connection from="gneE164" to="gneE160" fromLane="0" toLane="0"/>

    <connection from="gneE165" to="gneE159" fromLane="0" toLane="0"/>

    <connection from="gneE166" to="gneE144" fromLane="0" toLane="0"/>

    <connection from="gneE167" to="gneE143" fromLane="0" toLane="0"/>

    <connection from="gneE168" to="gneE145" fromLane="0" toLane="0"/>

    <connection from="gneE169" to="gneE144" fromLane="0" toLane="0"/>

    <connection from="gneE17" to="gneE18" fromLane="0" toLane="0"/>

    <connection from="gneE170" to="gneE153" fromLane="0" toLane="0"/>

    <connection from="gneE171" to="gneE152" fromLane="0" toLane="0"/>

    <connection from="gneE172" to="gneE154" fromLane="0" toLane="0"/>

    <connection from="gneE173" to="gneE153" fromLane="0" toLane="0"/>

    <connection from="gneE174" to="gneE216" fromLane="0" toLane="0"/>

    <connection from="gneE176" to="gneE217" fromLane="0" toLane="0"/>

    <connection from="gneE178"/>

    <connection from="gneE179" to="gneE216" fromLane="0" toLane="0"/>

    <connection from="gneE18" to="gneE58" fromLane="0" toLane="0"/>

    <connection from="gneE19" to="gneE20" fromLane="0" toLane="0"/>
    <connection from="gneE19" to="gneE114" fromLane="0" toLane="0"/>

    <connection from="gneE2" to="gneE59" fromLane="0" toLane="0"/>

    <connection from="gneE20" to="gneE21" fromLane="0" toLane="0"/>

    <connection from="gneE204" to="gneE158" fromLane="0" toLane="0"/>

    <connection from="gneE205" to="gneE160" fromLane="0" toLane="0"/>

    <connection from="gneE206" to="gneE103" fromLane="0" toLane="0"/>

    <connection from="gneE207" to="gneE106" fromLane="0" toLane="0"/>

    <connection from="gneE21" to="gneE39" fromLane="0" toLane="0"/>

    <connection from="gneE214" to="gneE154" fromLane="0" toLane="0"/>

    <connection from="gneE215" to="gneE152" fromLane="0" toLane="0"/>

    <connection from="gneE216" to="gneE176" fromLane="0" toLane="0"/>

    <connection from="gneE217" to="gneE180" fromLane="0" toLane="0"/>
    <connection from="gneE217" to="gneE174" fromLane="0" toLane="0"/>

    <connection from="gneE218" to="gneE143" fromLane="0" toLane="0"/>

    <connection from="gneE219" to="gneE145" fromLane="0" toLane="0"/>

    <connection from="gneE23" to="gneE24" fromLane="0" toLane="0"/>
    <connection from="gneE23" to="gneE70" fromLane="0" toLane="0"/>

    <connection from="gneE24" to="gneE25" fromLane="0" toLane="0"/>

    <connection from="gneE25" to="gneE33" fromLane="0" toLane="0"/>

    <connection from="gneE26" to="gneE27" fromLane="0" toLane="0"/>
    <connection from="gneE26" to="gneE64" fromLane="0" toLane="0"/>

    <connection from="gneE27" to="gneE28" fromLane="0" toLane="0"/>

    <connection from="gneE28" to="gneE51" fromLane="0" toLane="0"/>

    <connection from="gneE3" to="gneE58" fromLane="0" toLane="0"/>

    <connection from="gneE33" to="gneE189" fromLane="0" toLane="0"/>
    <connection from="gneE33" to="gneE194" fromLane="0" toLane="0"/>
    <connection from="gneE33" to="gneE213" fromLane="0" toLane="0"/>

    <connection from="gneE34" to="gneE193" fromLane="0" toLane="0"/>
    <connection from="gneE34" to="gneE190" fromLane="0" toLane="0"/>
    <connection from="gneE34" to="gneE210" fromLane="0" toLane="0"/>

    <connection from="gneE35" to="gneE211" fromLane="0" toLane="0"/>
    <connection from="gneE35" to="gneE192" fromLane="0" toLane="0"/>
    <connection from="gneE35" to="gneE191" fromLane="0" toLane="0"/>

    <connection from="gneE39" to="gneE183" fromLane="0" toLane="0"/>
    <connection from="gneE39" to="gneE185" fromLane="0" toLane="0"/>
    <connection from="gneE39" to="gneE222" fromLane="0" toLane="0"/>

    <connection from="gneE4" to="gneE53" fromLane="0" toLane="0"/>

    <connection from="gneE40" to="gneE184" fromLane="0" toLane="0"/>
    <connection from="gneE40" to="gneE182" fromLane="0" toLane="0"/>
    <connection from="gneE40" to="gneE187" fromLane="0" toLane="0"/>

    <connection from="gneE41" to="gneE223" fromLane="0" toLane="0"/>
    <connection from="gneE41" to="gneE186" fromLane="0" toLane="0"/>
    <connection from="gneE41" to="gneE181" fromLane="0" toLane="0"/>

    <connection from="gneE45" to="gneE219" fromLane="0" toLane="0"/>
    <connection from="gneE45" to="gneE166" fromLane="0" toLane="0"/>
    <connection from="gneE45" to="gneE142" fromLane="0" toLane="0"/>

    <connection from="gneE46" to="gneE168" fromLane="0" toLane="0"/>
    <connection from="gneE46" to="gneE141" fromLane="0" toLane="0"/>
    <connection from="gneE46" to="gneE167" fromLane="0" toLane="0"/>

    <connection from="gneE47" to="gneE140" fromLane="0" toLane="0"/>
    <connection from="gneE47" to="gneE169" fromLane="0" toLane="0"/>
    <connection from="gneE47" to="gneE218" fromLane="0" toLane="0"/>

    <connection from="gneE48" to="gneE207" fromLane="0" toLane="0"/>
    <connection from="gneE48" to="gneE102" fromLane="0" toLane="0"/>
    <connection from="gneE48" to="gneE96" fromLane="0" toLane="0"/>

    <connection from="gneE49" to="gneE100" fromLane="0" toLane="0"/>
    <connection from="gneE49" to="gneE97" fromLane="0" toLane="0"/>
    <connection from="gneE49" to="gneE101" fromLane="0" toLane="0"/>

    <connection from="gneE5" to="gneE52" fromLane="0" toLane="0"/>

    <connection from="gneE50" to="gneE98" fromLane="0" toLane="0"/>
    <connection from="gneE50" to="gneE99" fromLane="0" toLane="0"/>
    <connection from="gneE50" to="gneE206" fromLane="0" toLane="0"/>

    <connection from="gneE51" to="gneE199" fromLane="0" toLane="0"/>
    <connection from="gneE51" to="gneE200" fromLane="0" toLane="0"/>
    <connection from="gneE51" to="gneE224" fromLane="0" toLane="0"/>

    <connection from="gneE52" to="gneE201" fromLane="0" toLane="0"/>
    <connection from="gneE52" to="gneE198" fromLane="0" toLane="0"/>
    <connection from="gneE52" to="gneE203" fromLane="0" toLane="0"/>

    <connection from="gneE53" to="gneE225" fromLane="0" toLane="0"/>
    <connection from="gneE53" to="gneE202" fromLane="0" toLane="0"/>
    <connection from="gneE53" to="gneE197" fromLane="0" toLane="0"/>

    <connection from="gneE54" to="gneE204" fromLane="0" toLane="0"/>
    <connection from="gneE54" to="gneE165" fromLane="0" toLane="0"/>
    <connection from="gneE54" to="gneE157" fromLane="0" toLane="0"/>

    <connection from="gneE55" to="gneE163" fromLane="0" toLane="0"/>
    <connection from="gneE55" to="gneE156" fromLane="0" toLane="0"/>
    <connection from="gneE55" to="gneE164" fromLane="0" toLane="0"/>

    <connection from="gneE56" to="gneE155" fromLane="0" toLane="0"/>
    <connection from="gneE56" to="gneE162" fromLane="0" toLane="0"/>
    <connection from="gneE56" to="gneE205" fromLane="0" toLane="0"/>

    <connection from="gneE58" to="gneE176" fromLane="0" toLane="0"/>
    <connection from="gneE58" to="gneE177" fromLane="0" toLane="0"/>

    <connection from="gneE59" to="gneE178" fromLane="0" toLane="0"/>
    <connection from="gneE59" to="gneE175" fromLane="0" toLane="0"/>
    <connection from="gneE59" to="gneE179" fromLane="0" toLane="0"/>

    <connection from="gneE6" to="gneE51" fromLane="0" toLane="0"/>

    <connection from="gneE60" to="gneE180" fromLane="0" toLane="0"/>
    <connection from="gneE60" to="gneE174" fromLane="0" toLane="0"/>

    <connection from="gneE61" to="gneE215" fromLane="0" toLane="0"/>
    <connection from="gneE61" to="gneE173" fromLane="0" toLane="0"/>
    <connection from="gneE61" to="gneE148" fromLane="0" toLane="0"/>

    <connection from="gneE62" to="gneE171" fromLane="0" toLane="0"/>
    <connection from="gneE62" to="gneE149" fromLane="0" toLane="0"/>
    <connection from="gneE62" to="gneE172" fromLane="0" toLane="0"/>

    <connection from="gneE63" to="gneE150" fromLane="0" toLane="0"/>
    <connection from="gneE63" to="gneE170" fromLane="0" toLane="0"/>
    <connection from="gneE63" to="gneE214" fromLane="0" toLane="0"/>

    <connection from="gneE64" to="gneE69" fromLane="0" toLane="0"/>

    <connection from="gneE68" to="gneE25" fromLane="0" toLane="0"/>

    <connection from="gneE69" to="gneE80" fromLane="0" toLane="0"/>
    <connection from="gneE69" to="gneE68" fromLane="0" toLane="0"/>

    <connection from="gneE7" to="gneE33" fromLane="0" toLane="0"/>

    <connection from="gneE70" to="gneE71" fromLane="0" toLane="0"/>

    <connection from="gneE71" to="gneE124" fromLane="0" toLane="0"/>
    <connection from="gneE71" to="gneE72" fromLane="0" toLane="0"/>

    <connection from="gneE72" to="gneE18" fromLane="0" toLane="0"/>

    <connection from="gneE8" to="gneE34" fromLane="0" toLane="0"/>

    <connection from="gneE80" to="gneE83" fromLane="0" toLane="0"/>

    <connection from="gneE81" to="gneE71" fromLane="0" toLane="0"/>

    <connection from="gneE83" to="gneE108" fromLane="0" toLane="0"/>

    <connection from="gneE9" to="gneE35" fromLane="0" toLane="0"/>

    <connection from="gneE96" to="gneE103" fromLane="0" toLane="0"/>

    <connection from="gneE97" to="gneE104" fromLane="0" toLane="0"/>

    <connection from="gneE98" to="gneE106" fromLane="0" toLane="0"/>

    <connection from="gneE99" to="gneE104" fromLane="0" toLane="0"/>

</connections>
