<?xml version="1.0" encoding="UTF-8"?>

<!-- generated on 6/22/2018 12:32:13 PM by Netedit Version 0.32.0
<?xml version="1.0" encoding="UTF-8"?>

<configuration xmlns:xsi="http://www.w3.org/2001/XMLSchema-instance" xsi:noNamespaceSchemaLocation="http://sumo.dlr.de/xsd/netconvertConfiguration.xsd">

    <output>
        <output-file value="C:\Users\abeld\Downloads\cloverleaf%20-%20hand.net.xml"/>
        <plain-output-prefix value="C:\Users\abeld\Downloads\Cloverleaf\cloverleaf"/>
    </output>

    <processing>
        <no-turnarounds value="true"/>
        <offset.disable-normalization value="true"/>
    </processing>

</configuration>
-->

<edges version="0.27" xmlns:xsi="http://www.w3.org/2001/XMLSchema-instance" xsi:noNamespaceSchemaLocation="http://sumo.dlr.de/xsd/edges_file.xsd">
    <edge id="gneE1" from="gneJ2" to="gneJ3" priority="1" numLanes="1" speed="13.89"/>
    <edge id="gneE10" from="gneJ20" to="gneJ21" priority="1" numLanes="1" speed="13.89"/>
    <edge id="gneE100" from="gneJ60" to="gneJ104" priority="1" numLanes="1" speed="13.89"/>
    <edge id="gneE101" from="gneJ60" to="gneJ102" priority="1" numLanes="1" speed="13.89"/>
    <edge id="gneE102" from="gneJ58" to="gneJ103" priority="1" numLanes="1" speed="13.89"/>
    <edge id="gneE103" from="gneJ102" to="gneJ20" priority="1" numLanes="1" speed="13.89"/>
    <edge id="gneE104" from="gneJ103" to="gneJ22" priority="1" numLanes="1" speed="13.89"/>
    <edge id="gneE106" from="gneJ104" to="gneJ24" priority="1" numLanes="1" speed="13.89"/>
    <edge id="gneE107" from="gneJ106" to="gneJ95" priority="1" numLanes="1" speed="13.89"/>
    <edge id="gneE108" from="gneJ97" to="gneJ107" priority="1" numLanes="1" speed="13.89"/>
    <edge id="gneE109" from="gneJ107" to="gneJ108" priority="1" numLanes="1" speed="13.89"/>
    <edge id="gneE11" from="gneJ22" to="gneJ23" priority="1" numLanes="1" speed="13.89"/>
    <edge id="gneE110" from="gneJ108" to="gneJ106" priority="1" numLanes="1" speed="13.89"/>
    <edge id="gneE111" from="gneJ28" to="gneJ109" priority="1" numLanes="1" speed="13.89"/>
    <edge id="gneE112" from="gneJ109" to="gneJ110" priority="1" numLanes="1" speed="13.89"/>
    <edge id="gneE113" from="gneJ110" to="gneJ31" priority="1" numLanes="1" speed="13.89"/>
    <edge id="gneE114" from="gneJ30" to="gneJ111" priority="1" numLanes="1" speed="13.89"/>
    <edge id="gneE115" from="gneJ111" to="gneJ112" priority="1" numLanes="1" speed="13.89"/>
    <edge id="gneE116" from="gneJ112" to="gneJ37" priority="1" numLanes="1" speed="13.89"/>
    <edge id="gneE117" from="gneJ110" to="gneJ113" priority="1" numLanes="1" speed="13.89"/>
    <edge id="gneE118" from="gneJ113" to="gneJ114" priority="1" numLanes="1" speed="13.89"/>
    <edge id="gneE119" from="gneJ114" to="gneJ115" priority="1" numLanes="1" speed="13.89"/>
    <edge id="gneE12" from="gneJ24" to="gneJ25" priority="1" numLanes="1" speed="13.89"/>
    <edge id="gneE120" from="gneJ115" to="gneJ116" priority="1" numLanes="1" speed="13.89"/>
    <edge id="gneE121" from="gneJ116" to="gneJ117" priority="1" numLanes="1" speed="13.89"/>
    <edge id="gneE122" from="gneJ117" to="gneJ118" priority="1" numLanes="1" speed="13.89"/>
    <edge id="gneE123" from="gneJ118" to="gneJ111" priority="1" numLanes="1" speed="13.89"/>
    <edge id="gneE124" from="gneJ87" to="gneJ119" priority="1" numLanes="1" speed="13.89"/>
    <edge id="gneE125" from="gneJ120" to="gneJ109" priority="1" numLanes="1" speed="13.89"/>
    <edge id="gneE126" from="gneJ119" to="gneJ121" priority="1" numLanes="1" speed="13.89"/>
    <edge id="gneE127" from="gneJ122" to="gneJ120" priority="1" numLanes="1" speed="13.89"/>
    <edge id="gneE128" from="gneJ121" to="gneJ123" priority="1" numLanes="1" speed="13.89"/>
    <edge id="gneE129" from="gneJ123" to="gneJ124" priority="1" numLanes="1" speed="13.89"/>
    <edge id="gneE131" from="gneJ124" to="gneJ122" priority="1" numLanes="1" speed="13.89"/>
    <edge id="gneE132" from="gneJ112" to="gneJ126" priority="1" numLanes="1" speed="13.89"/>
    <edge id="gneE133" from="gneJ126" to="gneJ127" priority="1" numLanes="1" speed="13.89"/>
    <edge id="gneE134" from="gneJ127" to="gneJ128" priority="1" numLanes="1" speed="13.89"/>
    <edge id="gneE135" from="gneJ129" to="gneJ82" priority="1" numLanes="1" speed="13.89"/>
    <edge id="gneE136" from="gneJ130" to="gneJ129" priority="1" numLanes="1" speed="13.89"/>
    <edge id="gneE137" from="gneJ131" to="gneJ130" priority="1" numLanes="1" speed="13.89"/>
    <edge id="gneE138" from="gneJ128" to="gneJ131" priority="1" numLanes="1" speed="13.89"/>
    <edge id="gneE140" from="gneJ56" to="gneJ134" priority="1" numLanes="1" speed="13.89"/>
    <edge id="gneE141" from="gneJ54" to="gneJ135" priority="1" numLanes="1" speed="13.89"/>
    <edge id="gneE142" from="gneJ52" to="gneJ136" priority="1" numLanes="1" speed="13.89"/>
    <edge id="gneE143" from="gneJ136" to="gneJ18" priority="1" numLanes="1" speed="13.89"/>
    <edge id="gneE144" from="gneJ135" to="gneJ16" priority="1" numLanes="1" speed="13.89"/>
    <edge id="gneE145" from="gneJ134" to="gneJ14" priority="1" numLanes="1" speed="13.89"/>
    <edge id="gneE148" from="gneJ77" to="gneJ141" priority="1" numLanes="1" speed="13.89"/>
    <edge id="gneE149" from="gneJ79" to="gneJ142" priority="1" numLanes="1" speed="13.89"/>
    <edge id="gneE150" from="gneJ81" to="gneJ143" priority="1" numLanes="1" speed="13.89"/>
    <edge id="gneE152" from="gneJ143" to="gneJ12" priority="1" numLanes="1" speed="13.89"/>
    <edge id="gneE153" from="gneJ142" to="gneJ10" priority="1" numLanes="1" speed="13.89"/>
    <edge id="gneE154" from="gneJ141" to="gneJ8" priority="1" numLanes="1" speed="13.89"/>
    <edge id="gneE155" from="gneJ71" to="gneJ145" priority="1" numLanes="1" speed="13.89"/>
    <edge id="gneE156" from="gneJ69" to="gneJ146" priority="1" numLanes="1" speed="13.89"/>
    <edge id="gneE157" from="gneJ67" to="gneJ147" priority="1" numLanes="1" speed="13.89"/>
    <edge id="gneE158" from="gneJ145" to="gneJ6" priority="1" numLanes="1" speed="13.89"/>
    <edge id="gneE159" from="gneJ146" to="gneJ4" priority="1" numLanes="1" speed="13.89"/>
    <edge id="gneE16" from="gneJ24" to="gneJ28" priority="1" numLanes="1" speed="13.89"/>
    <edge id="gneE160" from="gneJ147" to="gneJ2" priority="1" numLanes="1" speed="13.89"/>
    <edge id="gneE162" from="gneJ71" to="gneJ146" priority="1" numLanes="1" speed="13.89"/>
    <edge id="gneE163" from="gneJ69" to="gneJ145" priority="1" numLanes="1" speed="13.89"/>
    <edge id="gneE164" from="gneJ69" to="gneJ147" priority="1" numLanes="1" speed="13.89"/>
    <edge id="gneE165" from="gneJ67" to="gneJ146" priority="1" numLanes="1" speed="13.89"/>
    <edge id="gneE166" from="gneJ52" to="gneJ135" priority="1" numLanes="1" speed="13.89"/>
    <edge id="gneE167" from="gneJ54" to="gneJ136" priority="1" numLanes="1" speed="13.89"/>
    <edge id="gneE168" from="gneJ54" to="gneJ134" priority="1" numLanes="1" speed="13.89"/>
    <edge id="gneE169" from="gneJ56" to="gneJ135" priority="1" numLanes="1" speed="13.89"/>
    <edge id="gneE17" from="gneJ28" to="gneJ29" priority="1" numLanes="1" speed="13.89"/>
    <edge id="gneE170" from="gneJ81" to="gneJ142" priority="1" numLanes="1" speed="13.89"/>
    <edge id="gneE171" from="gneJ79" to="gneJ143" priority="1" numLanes="1" speed="13.89"/>
    <edge id="gneE172" from="gneJ79" to="gneJ141" priority="1" numLanes="1" speed="13.89"/>
    <edge id="gneE173" from="gneJ77" to="gneJ142" priority="1" numLanes="1" speed="13.89"/>
    <edge id="gneE18" from="gneJ29" to="gneJ7" priority="1" numLanes="1" speed="13.89"/>
    <edge id="gneE19" from="gneJ12" to="gneJ30" priority="1" numLanes="1" speed="13.89"/>
    <edge id="gneE2" from="gneJ4" to="gneJ5" priority="1" numLanes="1" speed="13.89"/>
    <edge id="gneE20" from="gneJ30" to="gneJ31" priority="1" numLanes="1" speed="13.89"/>
    <edge id="gneE21" from="gneJ31" to="gneJ25" priority="1" numLanes="1" speed="13.89"/>
    <edge id="gneE23" from="gneJ6" to="gneJ34" priority="1" numLanes="1" speed="13.89"/>
    <edge id="gneE24" from="gneJ34" to="gneJ35" priority="1" numLanes="1" speed="13.89"/>
    <edge id="gneE25" from="gneJ35" to="gneJ15" priority="1" numLanes="1" speed="13.89"/>
    <edge id="gneE26" from="gneJ14" to="gneJ36" priority="1" numLanes="1" speed="13.89"/>
    <edge id="gneE27" from="gneJ36" to="gneJ37" priority="1" numLanes="1" speed="13.89"/>
    <edge id="gneE28" from="gneJ37" to="gneJ13" priority="1" numLanes="1" speed="13.89"/>
    <edge id="gneE3" from="gneJ6" to="gneJ7" priority="1" numLanes="1" speed="13.89"/>
    <edge id="gneE33" from="gneJ15" to="gneJ38" priority="1" numLanes="1" speed="13.89"/>
    <edge id="gneE34" from="gneJ17" to="gneJ39" priority="1" numLanes="1" speed="13.89"/>
    <edge id="gneE35" from="gneJ19" to="gneJ40" priority="1" numLanes="1" speed="13.89"/>
    <edge id="gneE39" from="gneJ25" to="gneJ44" priority="1" numLanes="1" speed="13.89"/>
    <edge id="gneE4" from="gneJ8" to="gneJ9" priority="1" numLanes="1" speed="13.89"/>
    <edge id="gneE40" from="gneJ45" to="gneJ46" priority="1" numLanes="1" speed="13.89"/>
    <edge id="gneE41" from="gneJ21" to="gneJ47" priority="1" numLanes="1" speed="13.89"/>
    <edge id="gneE45" from="west1" to="gneJ52" priority="1" numLanes="1" speed="13.89"/>
    <edge id="gneE46" from="west2" to="gneJ54" priority="1" numLanes="1" speed="13.89"/>
    <edge id="gneE47" from="west3" to="gneJ56" priority="1" numLanes="1" speed="13.89"/>
    <edge id="gneE48" from="east1" to="gneJ58" priority="1" numLanes="1" speed="13.89"/>
    <edge id="gneE49" from="east2" to="gneJ60" priority="1" numLanes="1" speed="13.89"/>
    <edge id="gneE5" from="gneJ10" to="gneJ11" priority="1" numLanes="1" speed="13.89"/>
    <edge id="gneE50" from="east3" to="gneJ62" priority="1" numLanes="1" speed="13.89"/>
    <edge id="gneE51" from="gneJ13" to="gneJ63" priority="1" numLanes="1" speed="13.89"/>
    <edge id="gneE52" from="gneJ11" to="gneJ64" priority="1" numLanes="1" speed="13.89"/>
    <edge id="gneE53" from="gneJ9" to="gneJ65" priority="1" numLanes="1" speed="13.89"/>
    <edge id="gneE54" from="south1" to="gneJ67" priority="1" numLanes="1" speed="13.89"/>
    <edge id="gneE55" from="south2" to="gneJ69" priority="1" numLanes="1" speed="13.89"/>
    <edge id="gneE56" from="south3" to="gneJ71" priority="1" numLanes="1" speed="13.89"/>
    <edge id="gneE58" from="gneJ7" to="gneJ73" priority="1" numLanes="1" speed="13.89"/>
    <edge id="gneE59" from="gneJ5" to="gneJ74" priority="1" numLanes="1" speed="13.89"/>
    <edge id="gneE6" from="gneJ12" to="gneJ13" priority="1" numLanes="1" speed="13.89"/>
    <edge id="gneE60" from="gneJ3" to="gneJ75" priority="1" numLanes="1" speed="13.89"/>
    <edge id="gneE61" from="north1" to="gneJ77" priority="1" numLanes="1" speed="13.89"/>
    <edge id="gneE62" from="north2" to="gneJ79" priority="1" numLanes="1" speed="13.89"/>
    <edge id="gneE63" from="north3" to="gneJ81" priority="1" numLanes="1" speed="13.89"/>
    <edge id="gneE64" from="gneJ36" to="gneJ82" priority="1" numLanes="1" speed="13.89"/>
    <edge id="gneE68" from="gneJ85" to="gneJ35" priority="1" numLanes="1" speed="13.89"/>
    <edge id="gneE69" from="gneJ82" to="gneJ85" priority="1" numLanes="1" speed="13.89"/>
    <edge id="gneE7" from="gneJ14" to="gneJ15" priority="1" numLanes="1" speed="13.89"/>
    <edge id="gneE70" from="gneJ34" to="gneJ86" priority="1" numLanes="1" speed="13.89"/>
    <edge id="gneE71" from="gneJ86" to="gneJ87" priority="1" numLanes="1" speed="13.89"/>
    <edge id="gneE72" from="gneJ87" to="gneJ29" priority="1" numLanes="1" speed="13.89"/>
    <edge id="gneE8" from="gneJ16" to="gneJ17" priority="1" numLanes="1" speed="13.89"/>
    <edge id="gneE80" from="gneJ85" to="gneJ94" priority="1" numLanes="1" speed="13.89"/>
    <edge id="gneE81" from="gneJ95" to="gneJ86" priority="1" numLanes="1" speed="13.89"/>
    <edge id="gneE83" from="gneJ94" to="gneJ97" priority="1" numLanes="1" speed="13.89"/>
    <edge id="gneE9" from="gneJ18" to="gneJ19" priority="1" numLanes="1" speed="13.89"/>
    <edge id="gneE96" from="gneJ58" to="gneJ102" priority="1" numLanes="1" speed="13.89"/>
    <edge id="gneE97" from="gneJ60" to="gneJ103" priority="1" numLanes="1" speed="13.89"/>
    <edge id="gneE98" from="gneJ62" to="gneJ104" priority="1" numLanes="1" speed="13.89"/>
    <edge id="gneE99" from="gneJ62" to="gneJ103" priority="1" numLanes="1" speed="13.89"/>
</edges>
