<?xml version="1.0" encoding="UTF-8"?>

<!-- generated on 6/25/2018 11:44:41 PM by Netedit Version 0.32.0
<?xml version="1.0" encoding="UTF-8"?>

<configuration xmlns:xsi="http://www.w3.org/2001/XMLSchema-instance" xsi:noNamespaceSchemaLocation="http://sumo.dlr.de/xsd/netconvertConfiguration.xsd">

    <input>
        <sumo-net-file value="C:\Users\abeld\Documents\School\Year%202\Project%202-2\Project_2.2\desktop\assets\Intersection\Turbine\Turbine.net.xml"/>
    </input>

    <output>
        <output-file value="C:\Users\abeld\Documents\School\Year%202\Project%202-2\Project_2.2\desktop\assets\Intersection\Turbine\Turbine.net.xml"/>
        <plain-output-prefix value="C:\Users\abeld\Documents\School\Year%202\Project%202-2\Project_2.2\desktop\assets\Intersection\Turbine\Turbine"/>
    </output>

    <processing>
        <no-turnarounds value="true"/>
        <offset.disable-normalization value="true"/>
        <lefthand value="false"/>
        <junctions.corner-detail value="0"/>
        <rectangular-lane-cut value="false"/>
        <walkingareas value="false"/>
    </processing>

</configuration>
-->

<connections version="0.27" xmlns:xsi="http://www.w3.org/2001/XMLSchema-instance" xsi:noNamespaceSchemaLocation="http://sumo.dlr.de/xsd/connections_file.xsd">
    <connection from="gneE10" to="gneE11" fromLane="0" toLane="0"/>

    <connection from="gneE100" to="gneE118" fromLane="0" toLane="0"/>
    <connection from="gneE100" to="gneE101" fromLane="0" toLane="0"/>

    <connection from="gneE101" to="gneE102" fromLane="0" toLane="0"/>

    <connection from="gneE102" to="gneE103" fromLane="0" toLane="0"/>

    <connection from="gneE103" to="gneE104" fromLane="0" toLane="0"/>

    <connection from="gneE104" to="gneE105" fromLane="0" toLane="0"/>

    <connection from="gneE105" to="gneE106" fromLane="0" toLane="0"/>

    <connection from="gneE106" to="gneE190" fromLane="0" toLane="0"/>
    <connection from="gneE106" to="gneE107" fromLane="0" toLane="0"/>

    <connection from="gneE107" to="gneE108" fromLane="0" toLane="0"/>

    <connection from="gneE108" to="gneE109" fromLane="0" toLane="0"/>

    <connection from="gneE109" to="gneE111" fromLane="0" toLane="0"/>

    <connection from="gneE11" to="gneE12" fromLane="0" toLane="0"/>

    <connection from="gneE111" to="gneE112" fromLane="0" toLane="0"/>

    <connection from="gneE112" to="gneE113" fromLane="0" toLane="0"/>

    <connection from="gneE113" to="gneE114" fromLane="0" toLane="0"/>

    <connection from="gneE114" to="gneE115" fromLane="0" toLane="0"/>

    <connection from="gneE115" to="gneE116" fromLane="0" toLane="0"/>

    <connection from="gneE116" to="gneE117" fromLane="0" toLane="0"/>

    <connection from="gneE117" to="gneE66" fromLane="0" toLane="0"/>

    <connection from="gneE118" to="gneE119" fromLane="0" toLane="0"/>

    <connection from="gneE119" to="gneE120" fromLane="0" toLane="0"/>

    <connection from="gneE12" to="gneE13" fromLane="0" toLane="0"/>

    <connection from="gneE120" to="gneE121" fromLane="0" toLane="0"/>

    <connection from="gneE121" to="gneE122" fromLane="0" toLane="0"/>

    <connection from="gneE122" to="gneE123" fromLane="0" toLane="0"/>

    <connection from="gneE123" to="gneE124" fromLane="0" toLane="0"/>

    <connection from="gneE124" to="gneE125" fromLane="0" toLane="0"/>

    <connection from="gneE125" to="gneE126" fromLane="0" toLane="0"/>

    <connection from="gneE126" to="gneE127" fromLane="0" toLane="0"/>

    <connection from="gneE127" to="gneE128" fromLane="0" toLane="0"/>

    <connection from="gneE128" to="gneE129" fromLane="0" toLane="0"/>

    <connection from="gneE129" to="gneE130" fromLane="0" toLane="0"/>

    <connection from="gneE13" to="gneE14" fromLane="0" toLane="0"/>

    <connection from="gneE130" to="gneE131" fromLane="0" toLane="0"/>

    <connection from="gneE131" to="gneE96" fromLane="0" toLane="0"/>

    <connection from="gneE132" to="gneE134" fromLane="0" toLane="0"/>

    <connection from="gneE134" to="gneE135" fromLane="0" toLane="0"/>

    <connection from="gneE135" to="gneE136" fromLane="0" toLane="0"/>

    <connection from="gneE136" to="gneE157" fromLane="0" toLane="0"/>
    <connection from="gneE136" to="gneE137" fromLane="0" toLane="0"/>

    <connection from="gneE137" to="gneE138" fromLane="0" toLane="0"/>

    <connection from="gneE138" to="gneE139" fromLane="0" toLane="0"/>

    <connection from="gneE139" to="gneE140" fromLane="0" toLane="0"/>

    <connection from="gneE14" to="gneE15" fromLane="0" toLane="0"/>

    <connection from="gneE140" to="gneE141" fromLane="0" toLane="0"/>

    <connection from="gneE141" to="gneE170" fromLane="0" toLane="0"/>
    <connection from="gneE141" to="gneE142" fromLane="0" toLane="0"/>

    <connection from="gneE142" to="gneE143" fromLane="0" toLane="0"/>

    <connection from="gneE143" to="gneE144" fromLane="0" toLane="0"/>

    <connection from="gneE144" to="gneE145" fromLane="0" toLane="0"/>

    <connection from="gneE145" to="gneE146" fromLane="0" toLane="0"/>

    <connection from="gneE146" to="gneE147" fromLane="0" toLane="0"/>

    <connection from="gneE147" to="gneE148" fromLane="0" toLane="0"/>

    <connection from="gneE148" to="gneE20" fromLane="0" toLane="0"/>

    <connection from="gneE149" to="gneE150" fromLane="0" toLane="0"/>

    <connection from="gneE15" to="gneE16" fromLane="0" toLane="0"/>

    <connection from="gneE150" to="gneE151" fromLane="0" toLane="0"/>

    <connection from="gneE151" to="gneE153" fromLane="0" toLane="0"/>

    <connection from="gneE152" to="gneE154" fromLane="0" toLane="0"/>

    <connection from="gneE153" to="gneE152" fromLane="0" toLane="0"/>

    <connection from="gneE154" to="gneE155" fromLane="0" toLane="0"/>

    <connection from="gneE155" to="gneE156" fromLane="0" toLane="0"/>

    <connection from="gneE156" to="gneE222" fromLane="0" toLane="0"/>

    <connection from="gneE157" to="gneE158" fromLane="0" toLane="0"/>

    <connection from="gneE158" to="gneE159" fromLane="0" toLane="0"/>

    <connection from="gneE159" to="gneE160" fromLane="0" toLane="0"/>

    <connection from="gneE16" to="gneE17" fromLane="0" toLane="0"/>

    <connection from="gneE160" to="gneE161" fromLane="0" toLane="0"/>

    <connection from="gneE161" to="gneE162" fromLane="0" toLane="0"/>

    <connection from="gneE162" to="gneE163" fromLane="0" toLane="0"/>

    <connection from="gneE163" to="gneE164" fromLane="0" toLane="0"/>

    <connection from="gneE164" to="gneE165" fromLane="0" toLane="0"/>

    <connection from="gneE165" to="gneE166" fromLane="0" toLane="0"/>

    <connection from="gneE166" to="gneE167" fromLane="0" toLane="0"/>

    <connection from="gneE167" to="gneE168" fromLane="0" toLane="0"/>

    <connection from="gneE168" to="gneE169" fromLane="0" toLane="0"/>

    <connection from="gneE169" to="gneE156" fromLane="0" toLane="0"/>

    <connection from="gneE17" to="gneE18" fromLane="0" toLane="0"/>

    <connection from="gneE170" to="gneE171" fromLane="0" toLane="0"/>

    <connection from="gneE171" to="gneE172" fromLane="0" toLane="0"/>

    <connection from="gneE172" to="gneE173" fromLane="0" toLane="0"/>

    <connection from="gneE173" to="gneE174" fromLane="0" toLane="0"/>

    <connection from="gneE174" to="gneE175" fromLane="0" toLane="0"/>

    <connection from="gneE175" to="gneE176" fromLane="0" toLane="0"/>

    <connection from="gneE176" to="gneE177" fromLane="0" toLane="0"/>

    <connection from="gneE177" to="gneE178" fromLane="0" toLane="0"/>

    <connection from="gneE178" to="gneE179" fromLane="0" toLane="0"/>

    <connection from="gneE179" to="gneE180" fromLane="0" toLane="0"/>

    <connection from="gneE18" to="gneE19" fromLane="0" toLane="0"/>

    <connection from="gneE180" to="gneE181" fromLane="0" toLane="0"/>

    <connection from="gneE181" to="gneE182" fromLane="0" toLane="0"/>

    <connection from="gneE182" to="gneE183" fromLane="0" toLane="0"/>

    <connection from="gneE183" to="gneE184" fromLane="0" toLane="0"/>

    <connection from="gneE184" to="gneE185" fromLane="0" toLane="0"/>

    <connection from="gneE185" to="gneE186" fromLane="0" toLane="0"/>

    <connection from="gneE186" to="gneE187" fromLane="0" toLane="0"/>

    <connection from="gneE187" to="gneE188" fromLane="0" toLane="0"/>

    <connection from="gneE188" to="gneE189" fromLane="0" toLane="0"/>

    <connection from="gneE189" to="gneE124" fromLane="0" toLane="0"/>

    <connection from="gneE19" to="gneE20" fromLane="0" toLane="0"/>

    <connection from="gneE190" to="gneE191" fromLane="0" toLane="0"/>

    <connection from="gneE191" to="gneE192" fromLane="0" toLane="0"/>

    <connection from="gneE192" to="gneE194" fromLane="0" toLane="0"/>

    <connection from="gneE194" to="gneE195" fromLane="0" toLane="0"/>

    <connection from="gneE195" to="gneE196" fromLane="0" toLane="0"/>

    <connection from="gneE196" to="gneE197" fromLane="0" toLane="0"/>

    <connection from="gneE197" to="gneE198" fromLane="0" toLane="0"/>

    <connection from="gneE198" to="gneE199" fromLane="0" toLane="0"/>

    <connection from="gneE199" to="gneE200" fromLane="0" toLane="0"/>

    <connection from="gneE20" to="gneE238" fromLane="0" toLane="0"/>

    <connection from="gneE200" to="gneE201" fromLane="0" toLane="0"/>

    <connection from="gneE201" to="gneE202" fromLane="0" toLane="0"/>

    <connection from="gneE202" to="gneE203" fromLane="0" toLane="0"/>

    <connection from="gneE203" to="gneE204" fromLane="0" toLane="0"/>

    <connection from="gneE204" to="gneE205" fromLane="0" toLane="0"/>

    <connection from="gneE205" to="gneE206" fromLane="0" toLane="0"/>

    <connection from="gneE206" to="gneE207" fromLane="0" toLane="0"/>

    <connection from="gneE207" to="gneE208" fromLane="0" toLane="0"/>

    <connection from="gneE208" to="gneE209" fromLane="0" toLane="0"/>

    <connection from="gneE209" to="gneE164" fromLane="0" toLane="0"/>

    <connection from="gneE21" to="gneE49" fromLane="0" toLane="0"/>
    <connection from="gneE21" to="gneE22" fromLane="0" toLane="0"/>

    <connection from="gneE212" to="gneE221" fromLane="0" toLane="0"/>

    <connection from="gneE213" to="gneE220" fromLane="0" toLane="0"/>

    <connection from="gneE214" to="gneE227" fromLane="0" toLane="0"/>

    <connection from="gneE215" to="gneE226" fromLane="0" toLane="0"/>

    <connection from="gneE216" to="gneE240" fromLane="0" toLane="0"/>

    <connection from="gneE217" to="gneE239" fromLane="0" toLane="0"/>

    <connection from="gneE218" to="gneE237" fromLane="0" toLane="0"/>

    <connection from="gneE219" to="gneE236" fromLane="0" toLane="0"/>

    <connection from="gneE22" to="gneE23" fromLane="0" toLane="0"/>

    <connection from="gneE220" to="gneE491" fromLane="0" toLane="0"/>
    <connection from="gneE220" to="gneE430" fromLane="0" toLane="0"/>

    <connection from="gneE221" to="gneE489" fromLane="0" toLane="0"/>
    <connection from="gneE221" to="gneE429" fromLane="0" toLane="0"/>
    <connection from="gneE221" to="gneE490" fromLane="0" toLane="0"/>

    <connection from="gneE222" to="gneE428" fromLane="0" toLane="0"/>
    <connection from="gneE222" to="gneE488" fromLane="0" toLane="0"/>

    <connection from="gneE223" to="gneE3" fromLane="0" toLane="0"/>

    <connection from="gneE224" to="gneE214" fromLane="0" toLane="0"/>

    <connection from="gneE225" to="gneE215" fromLane="0" toLane="0"/>

    <connection from="gneE226" to="gneE282" fromLane="0" toLane="0"/>
    <connection from="gneE226" to="gneE245" fromLane="0" toLane="0"/>

    <connection from="gneE227" to="gneE285" fromLane="0" toLane="0"/>
    <connection from="gneE227" to="gneE251" fromLane="0" toLane="0"/>
    <connection from="gneE227" to="gneE283" fromLane="0" toLane="0"/>

    <connection from="gneE228" to="gneE276" fromLane="0" toLane="0"/>
    <connection from="gneE228" to="gneE284" fromLane="0" toLane="0"/>

    <connection from="gneE229" to="gneE213" fromLane="0" toLane="0"/>

    <connection from="gneE23" to="gneE24" fromLane="0" toLane="0"/>

    <connection from="gneE230" to="gneE212" fromLane="0" toLane="0"/>

    <connection from="gneE231" to="gneE21" fromLane="0" toLane="0"/>

    <connection from="gneE232" to="gneE217" fromLane="0" toLane="0"/>

    <connection from="gneE233" to="gneE216" fromLane="0" toLane="0"/>

    <connection from="gneE235" to="gneE98" fromLane="0" toLane="0"/>

    <connection from="gneE236" to="gneE363" fromLane="0" toLane="0"/>
    <connection from="gneE236" to="gneE311" fromLane="0" toLane="0"/>

    <connection from="gneE237" to="gneE365" fromLane="0" toLane="0"/>
    <connection from="gneE237" to="gneE309" fromLane="0" toLane="0"/>
    <connection from="gneE237" to="gneE364" fromLane="0" toLane="0"/>

    <connection from="gneE238" to="gneE307" fromLane="0" toLane="0"/>
    <connection from="gneE238" to="gneE366" fromLane="0" toLane="0"/>

    <connection from="gneE239" to="gneE391" fromLane="0" toLane="0"/>
    <connection from="gneE239" to="gneE375" fromLane="0" toLane="0"/>

    <connection from="gneE24" to="gneE25" fromLane="0" toLane="0"/>
    <connection from="gneE24" to="gneE149" fromLane="0" toLane="0"/>

    <connection from="gneE240" to="gneE393" fromLane="0" toLane="0"/>
    <connection from="gneE240" to="gneE371" fromLane="0" toLane="0"/>
    <connection from="gneE240" to="gneE392" fromLane="0" toLane="0"/>

    <connection from="gneE241" to="gneE367" fromLane="0" toLane="0"/>
    <connection from="gneE241" to="gneE394" fromLane="0" toLane="0"/>

    <connection from="gneE242" to="gneE219" fromLane="0" toLane="0"/>

    <connection from="gneE243" to="gneE218" fromLane="0" toLane="0"/>

    <connection from="gneE244" to="gneE132" fromLane="0" toLane="0"/>

    <connection from="gneE245" to="gneE246" fromLane="0" toLane="0"/>

    <connection from="gneE246" to="gneE286" fromLane="0" toLane="0"/>
    <connection from="gneE246" to="gneE247" fromLane="0" toLane="0"/>

    <connection from="gneE247" to="gneE248" fromLane="0" toLane="0"/>

    <connection from="gneE248" to="gneE290" fromLane="0" toLane="0"/>
    <connection from="gneE248" to="gneE249" fromLane="0" toLane="0"/>

    <connection from="gneE249" to="gneE250" fromLane="0" toLane="0"/>

    <connection from="gneE25" to="gneE26" fromLane="0" toLane="0"/>

    <connection from="gneE251" to="gneE252" fromLane="0" toLane="0"/>

    <connection from="gneE252" to="gneE289" fromLane="0" toLane="0"/>
    <connection from="gneE252" to="gneE253" fromLane="0" toLane="0"/>
    <connection from="gneE252" to="gneE287" fromLane="0" toLane="0"/>

    <connection from="gneE253" to="gneE254" fromLane="0" toLane="0"/>

    <connection from="gneE254" to="gneE293" fromLane="0" toLane="0"/>
    <connection from="gneE254" to="gneE255" fromLane="0" toLane="0"/>
    <connection from="gneE254" to="gneE292" fromLane="0" toLane="0"/>

    <connection from="gneE255" to="gneE256" fromLane="0" toLane="0"/>

    <connection from="gneE257" to="gneE297" fromLane="0" toLane="0"/>
    <connection from="gneE257" to="gneE258" fromLane="0" toLane="0"/>

    <connection from="gneE258" to="gneE259" fromLane="0" toLane="0"/>

    <connection from="gneE259" to="gneE301" fromLane="0" toLane="0"/>
    <connection from="gneE259" to="gneE260" fromLane="0" toLane="0"/>

    <connection from="gneE26" to="gneE27" fromLane="0" toLane="0"/>

    <connection from="gneE260" to="gneE261" fromLane="0" toLane="0"/>

    <connection from="gneE261" to="gneE305" fromLane="0" toLane="0"/>
    <connection from="gneE261" to="gneE262" fromLane="0" toLane="0"/>

    <connection from="gneE262" to="gneE229" fromLane="0" toLane="0"/>

    <connection from="gneE263" to="gneE296" fromLane="0" toLane="0"/>
    <connection from="gneE263" to="gneE264" fromLane="0" toLane="0"/>
    <connection from="gneE263" to="gneE298" fromLane="0" toLane="0"/>

    <connection from="gneE264" to="gneE266" fromLane="0" toLane="0"/>

    <connection from="gneE266" to="gneE302" fromLane="0" toLane="0"/>
    <connection from="gneE266" to="gneE267" fromLane="0" toLane="0"/>
    <connection from="gneE266" to="gneE300" fromLane="0" toLane="0"/>

    <connection from="gneE267" to="gneE268" fromLane="0" toLane="0"/>

    <connection from="gneE268" to="gneE304" fromLane="0" toLane="0"/>
    <connection from="gneE268" to="gneE269" fromLane="0" toLane="0"/>
    <connection from="gneE268" to="gneE306" fromLane="0" toLane="0"/>

    <connection from="gneE269" to="gneE230" fromLane="0" toLane="0"/>

    <connection from="gneE27" to="gneE28" fromLane="0" toLane="0"/>

    <connection from="gneE270" to="gneE271" fromLane="0" toLane="0"/>
    <connection from="gneE270" to="gneE295" fromLane="0" toLane="0"/>

    <connection from="gneE271" to="gneE272" fromLane="0" toLane="0"/>

    <connection from="gneE272" to="gneE273" fromLane="0" toLane="0"/>
    <connection from="gneE272" to="gneE299" fromLane="0" toLane="0"/>

    <connection from="gneE273" to="gneE274" fromLane="0" toLane="0"/>

    <connection from="gneE274" to="gneE275" fromLane="0" toLane="0"/>
    <connection from="gneE274" to="gneE303" fromLane="0" toLane="0"/>

    <connection from="gneE275" to="gneE231" fromLane="0" toLane="0"/>

    <connection from="gneE276" to="gneE277" fromLane="0" toLane="0"/>

    <connection from="gneE277" to="gneE278" fromLane="0" toLane="0"/>
    <connection from="gneE277" to="gneE288" fromLane="0" toLane="0"/>

    <connection from="gneE278" to="gneE279" fromLane="0" toLane="0"/>

    <connection from="gneE279" to="gneE280" fromLane="0" toLane="0"/>
    <connection from="gneE279" to="gneE294" fromLane="0" toLane="0"/>

    <connection from="gneE28" to="gneE29" fromLane="0" toLane="0"/>

    <connection from="gneE280" to="gneE281" fromLane="0" toLane="0"/>

    <connection from="gneE282" to="gneE252" fromLane="0" toLane="0"/>

    <connection from="gneE283" to="gneE246" fromLane="0" toLane="0"/>

    <connection from="gneE284" to="gneE252" fromLane="0" toLane="0"/>

    <connection from="gneE285" to="gneE277" fromLane="0" toLane="0"/>

    <connection from="gneE286" to="gneE254" fromLane="0" toLane="0"/>

    <connection from="gneE287" to="gneE248" fromLane="0" toLane="0"/>

    <connection from="gneE288" to="gneE254" fromLane="0" toLane="0"/>

    <connection from="gneE289" to="gneE279" fromLane="0" toLane="0"/>

    <connection from="gneE29" to="gneE30" fromLane="0" toLane="0"/>

    <connection from="gneE290" to="gneE256" fromLane="0" toLane="0"/>

    <connection from="gneE292" to="gneE250" fromLane="0" toLane="0"/>

    <connection from="gneE293" to="gneE281" fromLane="0" toLane="0"/>

    <connection from="gneE294" to="gneE256" fromLane="0" toLane="0"/>

    <connection from="gneE295" to="gneE266" fromLane="0" toLane="0"/>

    <connection from="gneE296" to="gneE272" fromLane="0" toLane="0"/>

    <connection from="gneE297" to="gneE266" fromLane="0" toLane="0"/>

    <connection from="gneE298" to="gneE259" fromLane="0" toLane="0"/>

    <connection from="gneE299" to="gneE268" fromLane="0" toLane="0"/>

    <connection from="gneE3" to="gneE4" fromLane="0" toLane="0"/>
    <connection from="gneE3" to="gneE67" fromLane="0" toLane="0"/>

    <connection from="gneE30" to="gneE31" fromLane="0" toLane="0"/>

    <connection from="gneE300" to="gneE261" fromLane="0" toLane="0"/>

    <connection from="gneE301" to="gneE268" fromLane="0" toLane="0"/>

    <connection from="gneE302" to="gneE274" fromLane="0" toLane="0"/>

    <connection from="gneE303" to="gneE230" fromLane="0" toLane="0"/>

    <connection from="gneE304" to="gneE231" fromLane="0" toLane="0"/>

    <connection from="gneE305" to="gneE230" fromLane="0" toLane="0"/>

    <connection from="gneE306" to="gneE229" fromLane="0" toLane="0"/>

    <connection from="gneE307" to="gneE308" fromLane="0" toLane="0"/>

    <connection from="gneE308" to="gneE319" fromLane="0" toLane="0"/>
    <connection from="gneE308" to="gneE361" fromLane="0" toLane="0"/>

    <connection from="gneE309" to="gneE310" fromLane="0" toLane="0"/>

    <connection from="gneE31" to="gneE32" fromLane="0" toLane="0"/>

    <connection from="gneE310" to="gneE362" fromLane="0" toLane="0"/>
    <connection from="gneE310" to="gneE320" fromLane="0" toLane="0"/>
    <connection from="gneE310" to="gneE360" fromLane="0" toLane="0"/>

    <connection from="gneE311" to="gneE312" fromLane="0" toLane="0"/>

    <connection from="gneE312" to="gneE359" fromLane="0" toLane="0"/>
    <connection from="gneE312" to="gneE321" fromLane="0" toLane="0"/>

    <connection from="gneE313" to="gneE331" fromLane="0" toLane="0"/>
    <connection from="gneE313" to="gneE314" fromLane="0" toLane="0"/>

    <connection from="gneE314" to="gneE232" fromLane="0" toLane="0"/>

    <connection from="gneE315" to="gneE333" fromLane="0" toLane="0"/>
    <connection from="gneE315" to="gneE316" fromLane="0" toLane="0"/>
    <connection from="gneE315" to="gneE332" fromLane="0" toLane="0"/>

    <connection from="gneE316" to="gneE233" fromLane="0" toLane="0"/>

    <connection from="gneE317" to="gneE318" fromLane="0" toLane="0"/>
    <connection from="gneE317" to="gneE334" fromLane="0" toLane="0"/>

    <connection from="gneE318" to="gneE235" fromLane="0" toLane="0"/>

    <connection from="gneE319" to="gneE322" fromLane="0" toLane="0"/>

    <connection from="gneE32" to="gneE33" fromLane="0" toLane="0"/>

    <connection from="gneE320" to="gneE323" fromLane="0" toLane="0"/>

    <connection from="gneE321" to="gneE324" fromLane="0" toLane="0"/>

    <connection from="gneE322" to="gneE339" fromLane="0" toLane="0"/>
    <connection from="gneE322" to="gneE355" fromLane="0" toLane="0"/>

    <connection from="gneE323" to="gneE356" fromLane="0" toLane="0"/>
    <connection from="gneE323" to="gneE340" fromLane="0" toLane="0"/>
    <connection from="gneE323" to="gneE357" fromLane="0" toLane="0"/>

    <connection from="gneE324" to="gneE358" fromLane="0" toLane="0"/>
    <connection from="gneE324" to="gneE341" fromLane="0" toLane="0"/>

    <connection from="gneE325" to="gneE335" fromLane="0" toLane="0"/>
    <connection from="gneE325" to="gneE326" fromLane="0" toLane="0"/>

    <connection from="gneE326" to="gneE313" fromLane="0" toLane="0"/>

    <connection from="gneE327" to="gneE337" fromLane="0" toLane="0"/>
    <connection from="gneE327" to="gneE328" fromLane="0" toLane="0"/>
    <connection from="gneE327" to="gneE336" fromLane="0" toLane="0"/>

    <connection from="gneE328" to="gneE315" fromLane="0" toLane="0"/>

    <connection from="gneE329" to="gneE330" fromLane="0" toLane="0"/>
    <connection from="gneE329" to="gneE338" fromLane="0" toLane="0"/>

    <connection from="gneE33" to="gneE34" fromLane="0" toLane="0"/>

    <connection from="gneE330" to="gneE317" fromLane="0" toLane="0"/>

    <connection from="gneE331" to="gneE233" fromLane="0" toLane="0"/>

    <connection from="gneE332" to="gneE232" fromLane="0" toLane="0"/>

    <connection from="gneE333" to="gneE235" fromLane="0" toLane="0"/>

    <connection from="gneE334" to="gneE233" fromLane="0" toLane="0"/>

    <connection from="gneE335" to="gneE315" fromLane="0" toLane="0"/>

    <connection from="gneE336" to="gneE313" fromLane="0" toLane="0"/>

    <connection from="gneE337" to="gneE317" fromLane="0" toLane="0"/>

    <connection from="gneE338" to="gneE315" fromLane="0" toLane="0"/>

    <connection from="gneE339" to="gneE345" fromLane="0" toLane="0"/>

    <connection from="gneE34" to="gneE35" fromLane="0" toLane="0"/>

    <connection from="gneE340" to="gneE346" fromLane="0" toLane="0"/>

    <connection from="gneE341" to="gneE347" fromLane="0" toLane="0"/>

    <connection from="gneE342" to="gneE325" fromLane="0" toLane="0"/>

    <connection from="gneE343" to="gneE327" fromLane="0" toLane="0"/>

    <connection from="gneE344" to="gneE329" fromLane="0" toLane="0"/>

    <connection from="gneE348" to="gneE354" fromLane="0" toLane="0"/>
    <connection from="gneE348" to="gneE342" fromLane="0" toLane="0"/>

    <connection from="gneE349" to="gneE352" fromLane="0" toLane="0"/>
    <connection from="gneE349" to="gneE343" fromLane="0" toLane="0"/>
    <connection from="gneE349" to="gneE353" fromLane="0" toLane="0"/>

    <connection from="gneE35" to="gneE36" fromLane="0" toLane="0"/>

    <connection from="gneE350" to="gneE344" fromLane="0" toLane="0"/>
    <connection from="gneE350" to="gneE351" fromLane="0" toLane="0"/>

    <connection from="gneE351" to="gneE327" fromLane="0" toLane="0"/>

    <connection from="gneE352" to="gneE329" fromLane="0" toLane="0"/>

    <connection from="gneE353" to="gneE325" fromLane="0" toLane="0"/>

    <connection from="gneE354" to="gneE327" fromLane="0" toLane="0"/>

    <connection from="gneE355" to="gneE346" fromLane="0" toLane="0"/>

    <connection from="gneE356" to="gneE345" fromLane="0" toLane="0"/>

    <connection from="gneE357" to="gneE347" fromLane="0" toLane="0"/>

    <connection from="gneE358" to="gneE346" fromLane="0" toLane="0"/>

    <connection from="gneE359" to="gneE323" fromLane="0" toLane="0"/>

    <connection from="gneE36" to="gneE37" fromLane="0" toLane="0"/>

    <connection from="gneE360" to="gneE324" fromLane="0" toLane="0"/>

    <connection from="gneE361" to="gneE323" fromLane="0" toLane="0"/>

    <connection from="gneE362" to="gneE322" fromLane="0" toLane="0"/>

    <connection from="gneE363" to="gneE310" fromLane="0" toLane="0"/>

    <connection from="gneE364" to="gneE312" fromLane="0" toLane="0"/>

    <connection from="gneE365" to="gneE308" fromLane="0" toLane="0"/>

    <connection from="gneE366" to="gneE310" fromLane="0" toLane="0"/>

    <connection from="gneE367" to="gneE368" fromLane="0" toLane="0"/>

    <connection from="gneE368" to="gneE369" fromLane="0" toLane="0"/>
    <connection from="gneE368" to="gneE399" fromLane="0" toLane="0"/>

    <connection from="gneE369" to="gneE370" fromLane="0" toLane="0"/>

    <connection from="gneE37" to="gneE38" fromLane="0" toLane="0"/>

    <connection from="gneE370" to="gneE407" fromLane="0" toLane="0"/>
    <connection from="gneE370" to="gneE419" fromLane="0" toLane="0"/>

    <connection from="gneE371" to="gneE372" fromLane="0" toLane="0"/>

    <connection from="gneE372" to="gneE400" fromLane="0" toLane="0"/>
    <connection from="gneE372" to="gneE373" fromLane="0" toLane="0"/>
    <connection from="gneE372" to="gneE401" fromLane="0" toLane="0"/>

    <connection from="gneE373" to="gneE374" fromLane="0" toLane="0"/>

    <connection from="gneE374" to="gneE420" fromLane="0" toLane="0"/>
    <connection from="gneE374" to="gneE409" fromLane="0" toLane="0"/>
    <connection from="gneE374" to="gneE422" fromLane="0" toLane="0"/>

    <connection from="gneE375" to="gneE376" fromLane="0" toLane="0"/>

    <connection from="gneE376" to="gneE402" fromLane="0" toLane="0"/>
    <connection from="gneE376" to="gneE377" fromLane="0" toLane="0"/>

    <connection from="gneE377" to="gneE378" fromLane="0" toLane="0"/>

    <connection from="gneE378" to="gneE421" fromLane="0" toLane="0"/>
    <connection from="gneE378" to="gneE411" fromLane="0" toLane="0"/>

    <connection from="gneE379" to="gneE406" fromLane="0" toLane="0"/>
    <connection from="gneE379" to="gneE380" fromLane="0" toLane="0"/>

    <connection from="gneE38" to="gneE39" fromLane="0" toLane="0"/>

    <connection from="gneE380" to="gneE381" fromLane="0" toLane="0"/>

    <connection from="gneE381" to="gneE398" fromLane="0" toLane="0"/>
    <connection from="gneE381" to="gneE382" fromLane="0" toLane="0"/>

    <connection from="gneE382" to="gneE242" fromLane="0" toLane="0"/>

    <connection from="gneE383" to="gneE404" fromLane="0" toLane="0"/>
    <connection from="gneE383" to="gneE384" fromLane="0" toLane="0"/>
    <connection from="gneE383" to="gneE405" fromLane="0" toLane="0"/>

    <connection from="gneE384" to="gneE385" fromLane="0" toLane="0"/>

    <connection from="gneE385" to="gneE396" fromLane="0" toLane="0"/>
    <connection from="gneE385" to="gneE386" fromLane="0" toLane="0"/>
    <connection from="gneE385" to="gneE397" fromLane="0" toLane="0"/>

    <connection from="gneE386" to="gneE243" fromLane="0" toLane="0"/>

    <connection from="gneE387" to="gneE388" fromLane="0" toLane="0"/>
    <connection from="gneE387" to="gneE403" fromLane="0" toLane="0"/>

    <connection from="gneE388" to="gneE389" fromLane="0" toLane="0"/>

    <connection from="gneE389" to="gneE390" fromLane="0" toLane="0"/>
    <connection from="gneE389" to="gneE395" fromLane="0" toLane="0"/>

    <connection from="gneE39" to="gneE40" fromLane="0" toLane="0"/>

    <connection from="gneE390" to="gneE244" fromLane="0" toLane="0"/>

    <connection from="gneE391" to="gneE372" fromLane="0" toLane="0"/>

    <connection from="gneE392" to="gneE376" fromLane="0" toLane="0"/>

    <connection from="gneE393" to="gneE368" fromLane="0" toLane="0"/>

    <connection from="gneE394" to="gneE372" fromLane="0" toLane="0"/>

    <connection from="gneE395" to="gneE243" fromLane="0" toLane="0"/>

    <connection from="gneE396" to="gneE244" fromLane="0" toLane="0"/>

    <connection from="gneE397" to="gneE242" fromLane="0" toLane="0"/>

    <connection from="gneE398" to="gneE243" fromLane="0" toLane="0"/>

    <connection from="gneE399" to="gneE374" fromLane="0" toLane="0"/>

    <connection from="gneE4" to="gneE6" fromLane="0" toLane="0"/>

    <connection from="gneE40" to="gneE41" fromLane="0" toLane="0"/>

    <connection from="gneE400" to="gneE370" fromLane="0" toLane="0"/>

    <connection from="gneE401" to="gneE378" fromLane="0" toLane="0"/>

    <connection from="gneE402" to="gneE374" fromLane="0" toLane="0"/>

    <connection from="gneE403" to="gneE385" fromLane="0" toLane="0"/>

    <connection from="gneE404" to="gneE389" fromLane="0" toLane="0"/>

    <connection from="gneE405" to="gneE381" fromLane="0" toLane="0"/>

    <connection from="gneE406" to="gneE385" fromLane="0" toLane="0"/>

    <connection from="gneE407" to="gneE408" fromLane="0" toLane="0"/>
