<?xml version="1.0" encoding="UTF-8"?>

<!-- generated on 6/25/2018 11:44:33 PM by Netedit Version 0.32.0
<?xml version="1.0" encoding="UTF-8"?>

<configuration xmlns:xsi="http://www.w3.org/2001/XMLSchema-instance" xsi:noNamespaceSchemaLocation="http://sumo.dlr.de/xsd/netconvertConfiguration.xsd">

    <input>
        <sumo-net-file value="C:\Users\abeld\Documents\School\Year%202\Project%202-2\Project_2.2\desktop\assets\Intersection\Turbine\Turbine.net.xml"/>
    </input>

    <output>
        <output-file value="C:\Users\abeld\Documents\School\Year%202\Project%202-2\Project_2.2\desktop\assets\Intersection\Turbine\Turbine.net.xml"/>
        <plain-output-prefix value=""/>
    </output>

    <processing>
        <no-turnarounds value="true"/>
        <offset.disable-normalization value="true"/>
        <lefthand value="false"/>
        <junctions.corner-detail value="0"/>
        <rectangular-lane-cut value="false"/>
        <walkingareas value="false"/>
    </processing>

</configuration>
-->

<net version="0.27" xmlns:xsi="http://www.w3.org/2001/XMLSchema-instance" xsi:noNamespaceSchemaLocation="http://sumo.dlr.de/xsd/net_file.xsd">

    <location netOffset="0.00,0.00" convBoundary="-1810.00,-1820.00,1820.00,1800.00" origBoundary="-10000000000.00,-10000000000.00,10000000000.00,10000000000.00" projParameter="!"/>

    <edge id=":gneJ100_0" function="internal">
        <lane id=":gneJ100_0_0" index="0" speed="13.89" length="13.12" shape="629.49,-55.24 632.75,-54.01 635.66,-52.85 638.63,-51.99 642.03,-51.65"/>
    </edge>
    <edge id=":gneJ100_1" function="internal">
        <lane id=":gneJ100_1_0" index="0" speed="13.89" length="13.12" shape="628.91,-51.65 642.03,-51.65"/>
    </edge>
    <edge id=":gneJ101_0" function="internal">
        <lane id=":gneJ101_0_0" index="0" speed="13.89" length="0.10" shape="660.00,-51.65 660.00,-51.65"/>
    </edge>
    <edge id=":gneJ102_0" function="internal">
        <lane id=":gneJ102_0_0" index="0" speed="13.89" length="0.10" shape="700.00,-51.65 700.00,-51.65"/>
    </edge>
    <edge id=":gneJ103_0" function="internal">
        <lane id=":gneJ103_0_0" index="0" speed="13.89" length="0.10" shape="51.65,-700.00 51.65,-700.00"/>
    </edge>
    <edge id=":gneJ104_0" function="internal">
        <lane id=":gneJ104_0_0" index="0" speed="13.89" length="0.10" shape="51.65,-660.00 51.65,-660.00"/>
    </edge>
    <edge id=":gneJ105_0" function="internal">
        <lane id=":gneJ105_0_0" index="0" speed="13.89" length="0.10" shape="51.65,-630.00 51.65,-630.00"/>
    </edge>
    <edge id=":gneJ106_0" function="internal">
        <lane id=":gneJ106_0_0" index="0" speed="13.89" length="11.14" shape="51.65,-602.17 51.95,-599.08 52.74,-596.83 53.91,-594.65 55.31,-591.80"/>
    </edge>
    <edge id=":gneJ106_1" function="internal">
        <lane id=":gneJ106_1_0" index="0" speed="13.89" length="11.12" shape="51.65,-602.17 51.65,-591.04"/>
    </edge>
    <edge id=":gneJ107_0" function="internal">
        <lane id=":gneJ107_0_0" index="0" speed="13.89" length="0.10" shape="51.65,-580.00 51.65,-580.00"/>
    </edge>
    <edge id=":gneJ108_0" function="internal">
        <lane id=":gneJ108_0_0" index="0" speed="13.89" length="0.10" shape="51.65,-550.00 51.65,-550.00"/>
    </edge>
    <edge id=":gneJ109_0" function="internal">
        <lane id=":gneJ109_0_0" index="0" speed="13.89" length="0.10" shape="51.65,-410.00 51.65,-410.00"/>
    </edge>
    <edge id=":gneJ11_0" function="internal">
        <lane id=":gneJ11_0_0" index="0" speed="13.89" length="0.27" shape="-520.76,-91.47 -520.51,-91.58"/>
    </edge>
    <edge id=":gneJ110_0" function="internal">
        <lane id=":gneJ110_0_0" index="0" speed="13.89" length="0.10" shape="51.65,-380.00 51.65,-380.00"/>
    </edge>
    <edge id=":gneJ111_0" function="internal">
        <lane id=":gneJ111_0_0" index="0" speed="13.89" length="0.10" shape="51.65,-350.00 51.65,-350.00"/>
    </edge>
    <edge id=":gneJ112_0" function="internal">
        <lane id=":gneJ112_0_0" index="0" speed="13.89" length="11.63" shape="51.65,-332.13 51.96,-328.96 52.77,-326.53 53.94,-324.17 55.29,-321.21"/>
    </edge>
    <edge id=":gneJ112_1" function="internal">
        <lane id=":gneJ112_1_0" index="0" speed="13.89" length="11.62" shape="51.65,-332.13 51.65,-320.51"/>
    </edge>
    <edge id=":gneJ113_0" function="internal">
        <lane id=":gneJ113_0_0" index="0" speed="13.89" length="0.10" shape="51.65,-310.00 51.65,-310.00"/>
    </edge>
    <edge id=":gneJ114_0" function="internal">
        <lane id=":gneJ114_0_0" index="0" speed="13.89" length="0.10" shape="51.65,-280.00 51.65,-280.00"/>
    </edge>
    <edge id=":gneJ115_0" function="internal">
        <lane id=":gneJ115_0_0" index="0" speed="13.89" length="0.10" shape="51.65,-240.00 51.65,-240.00"/>
    </edge>
    <edge id=":gneJ117_0" function="internal">
        <lane id=":gneJ117_0_0" index="0" speed="13.89" length="0.10" shape="51.65,-70.00 51.65,-70.00"/>
    </edge>
    <edge id=":gneJ118_0" function="internal">
        <lane id=":gneJ118_0_0" index="0" speed="13.89" length="0.10" shape="51.65,60.00 51.65,60.00"/>
    </edge>
    <edge id=":gneJ119_0" function="internal">
        <lane id=":gneJ119_0_0" index="0" speed="13.89" length="0.10" shape="51.65,190.00 51.65,190.00"/>
    </edge>
    <edge id=":gneJ12_0" function="internal">
        <lane id=":gneJ12_0_0" index="0" speed="13.89" length="0.10" shape="-450.65,-121.52 -450.74,-121.48"/>
    </edge>
    <edge id=":gneJ120_0" function="internal">
        <lane id=":gneJ120_0_0" index="0" speed="13.89" length="0.10" shape="51.65,310.00 51.65,310.00"/>
    </edge>
    <edge id=":gneJ121_0" function="internal">
        <lane id=":gneJ121_0_0" index="0" speed="13.89" length="0.10" shape="51.65,380.00 51.65,380.00"/>
    </edge>
    <edge id=":gneJ122_0" function="internal">
        <lane id=":gneJ122_0_0" index="0" speed="13.89" length="0.10" shape="51.65,580.00 51.65,580.00"/>
    </edge>
    <edge id=":gneJ123_0" function="internal">
        <lane id=":gneJ123_0_0" index="0" speed="13.89" length="0.10" shape="81.52,-530.65 81.52,-530.65"/>
    </edge>
    <edge id=":gneJ124_0" function="internal">
        <lane id=":gneJ124_0_0" index="0" speed="13.89" length="0.10" shape="111.52,-460.65 111.48,-460.74"/>
    </edge>
    <edge id=":gneJ125_0" function="internal">
        <lane id=":gneJ125_0_0" index="0" speed="13.89" length="0.12" shape="131.42,-420.85 131.48,-420.74"/>
    </edge>
    <edge id=":gneJ126_0" function="internal">
        <lane id=":gneJ126_0_0" index="0" speed="13.89" length="0.16" shape="161.33,-370.99 161.35,-370.95 161.37,-370.92 161.39,-370.90 161.42,-370.86"/>
    </edge>
    <edge id=":gneJ127_0" function="internal">
        <lane id=":gneJ127_0_0" index="0" speed="13.89" length="0.10" shape="191.32,-330.99 191.32,-330.99"/>
    </edge>
    <edge id=":gneJ128_0" function="internal">
        <lane id=":gneJ128_0_0" index="0" speed="13.89" length="9.93" shape="216.12,-297.92 217.83,-295.52 218.97,-293.85 220.21,-292.25 222.22,-290.11"/>
    </edge>
    <edge id=":gneJ128_1" function="internal">
        <lane id=":gneJ128_1_0" index="0" speed="13.89" length="9.94" shape="213.68,-295.00 216.38,-293.80 218.30,-293.04 220.04,-292.03 222.22,-290.11"/>
    </edge>
    <edge id=":gneJ129_0" function="internal">
        <lane id=":gneJ129_0_0" index="0" speed="13.89" length="0.20" shape="261.02,-251.31 261.07,-251.27 261.10,-251.24 261.13,-251.21 261.17,-251.18"/>
    </edge>
    <edge id=":gneJ13_0" function="internal">
        <lane id=":gneJ13_0_0" index="0" speed="13.89" length="0.12" shape="-410.85,-141.42 -410.74,-141.48"/>
    </edge>
    <edge id=":gneJ130_0" function="internal">
        <lane id=":gneJ130_0_0" index="0" speed="13.89" length="0.12" shape="350.92,-181.38 351.01,-181.31"/>
    </edge>
    <edge id=":gneJ131_0" function="internal">
        <lane id=":gneJ131_0_0" index="0" speed="13.89" length="0.20" shape="410.75,-141.49 410.80,-141.45 410.83,-141.43 410.87,-141.41 410.92,-141.39"/>
    </edge>
    <edge id=":gneJ132_0" function="internal">
        <lane id=":gneJ132_0_0" index="0" speed="13.89" length="3.00" shape="448.05,-122.82 450.74,-121.48"/>
    </edge>
    <edge id=":gneJ133_0" function="internal">
        <lane id=":gneJ133_0_0" index="0" speed="13.89" length="0.13" shape="490.62,-101.54 490.74,-101.48"/>
    </edge>
    <edge id=":gneJ134_0" function="internal">
        <lane id=":gneJ134_0_0" index="0" speed="13.89" length="0.22" shape="540.41,-81.61 540.47,-81.59 540.51,-81.58 540.55,-81.56 540.61,-81.55"/>
    </edge>
    <edge id=":gneJ135_0" function="internal">
        <lane id=":gneJ135_0_0" index="0" speed="13.89" length="0.12" shape="580.40,-71.60 580.52,-71.57"/>
    </edge>
    <edge id=":gneJ136_0" function="internal">
        <lane id=":gneJ136_0_0" index="0" speed="13.89" length="0.10" shape="-51.65,690.00 -51.65,690.00"/>
    </edge>
    <edge id=":gneJ137_0" function="internal">
        <lane id=":gneJ137_0_0" index="0" speed="13.89" length="0.10" shape="-51.65,640.00 -51.65,640.00"/>
    </edge>
    <edge id=":gneJ14_0" function="internal">
        <lane id=":gneJ14_0_0" index="0" speed="13.89" length="0.16" shape="-360.99,-171.33 -360.95,-171.35 -360.92,-171.37 -360.90,-171.39 -360.86,-171.42"/>
    </edge>
    <edge id=":gneJ140_0" function="internal">
        <lane id=":gneJ140_0_0" index="0" speed="13.89" length="0.10" shape="-51.65,620.00 -51.65,620.00"/>
    </edge>
    <edge id=":gneJ141_0" function="internal">
        <lane id=":gneJ141_0_0" index="0" speed="13.89" length="0.10" shape="-51.65,600.00 -51.65,600.00"/>
    </edge>
    <edge id=":gneJ142_0" function="internal">
        <lane id=":gneJ142_0_0" index="0" speed="13.89" length="11.63" shape="-51.65,592.13 -51.96,588.96 -52.77,586.53 -53.94,584.17 -55.29,581.21"/>
    </edge>
    <edge id=":gneJ142_1" function="internal">
        <lane id=":gneJ142_1_0" index="0" speed="13.89" length="11.62" shape="-51.65,592.13 -51.65,580.51"/>
    </edge>
    <edge id=":gneJ143_0" function="internal">
        <lane id=":gneJ143_0_0" index="0" speed="13.89" length="0.10" shape="-51.65,570.00 -51.65,570.00"/>
    </edge>
    <edge id=":gneJ144_0" function="internal">
        <lane id=":gneJ144_0_0" index="0" speed="13.89" length="0.10" shape="-51.65,510.00 -51.65,510.00"/>
    </edge>
    <edge id=":gneJ145_0" function="internal">
        <lane id=":gneJ145_0_0" index="0" speed="13.89" length="0.10" shape="-51.65,380.00 -51.65,380.00"/>
    </edge>
    <edge id=":gneJ146_0" function="internal">
        <lane id=":gneJ146_0_0" index="0" speed="13.89" length="0.10" shape="-51.65,320.00 -51.65,320.00"/>
    </edge>
    <edge id=":gneJ147_0" function="internal">
        <lane id=":gneJ147_0_0" index="0" speed="13.89" length="12.12" shape="-51.65,312.09 -51.97,308.85 -52.80,306.24 -53.97,303.70 -55.27,300.63"/>
    </edge>
    <edge id=":gneJ147_1" function="internal">
        <lane id=":gneJ147_1_0" index="0" speed="13.89" length="12.11" shape="-51.65,312.09 -51.65,299.98"/>
    </edge>
    <edge id=":gneJ148_0" function="internal">
        <lane id=":gneJ148_0_0" index="0" speed="13.89" length="0.10" shape="-51.65,200.00 -51.65,200.00"/>
    </edge>
    <edge id=":gneJ149_0" function="internal">
        <lane id=":gneJ149_0_0" index="0" speed="13.89" length="0.10" shape="-51.65,-70.00 -51.65,-70.00"/>
    </edge>
    <edge id=":gneJ15_0" function="internal">
        <lane id=":gneJ15_0_0" index="0" speed="13.89" length="0.25" shape="-321.11,-201.23 -320.91,-201.38"/>
    </edge>
    <edge id=":gneJ150_0" function="internal">
        <lane id=":gneJ150_0_0" index="0" speed="13.89" length="0.10" shape="-51.65,-250.00 -51.65,-250.00"/>
    </edge>
    <edge id=":gneJ151_0" function="internal">
        <lane id=":gneJ151_0_0" index="0" speed="13.89" length="0.10" shape="-51.65,-430.00 -51.65,-430.00"/>
    </edge>
    <edge id=":gneJ152_0" function="internal">
        <lane id=":gneJ152_0_0" index="0" speed="13.89" length="0.10" shape="-51.65,-510.00 -51.65,-510.00"/>
    </edge>
    <edge id=":gneJ153_0" function="internal">
        <lane id=":gneJ153_0_0" index="0" speed="13.89" length="0.10" shape="-51.65,-600.00 -51.65,-600.00"/>
    </edge>
    <edge id=":gneJ154_0" function="internal">
        <lane id=":gneJ154_0_0" index="0" speed="13.89" length="0.10" shape="200.00,41.65 200.00,41.65"/>
    </edge>
    <edge id=":gneJ155_0" function="internal">
        <lane id=":gneJ155_0_0" index="0" speed="13.89" length="0.10" shape="-560.00,41.65 -560.00,41.65"/>
    </edge>
    <edge id=":gneJ156_0" function="internal">
        <lane id=":gneJ156_0_0" index="0" speed="13.89" length="0.10" shape="-590.00,41.65 -590.00,41.65"/>
    </edge>
    <edge id=":gneJ157_0" function="internal">
        <lane id=":gneJ157_0_0" index="0" speed="13.89" length="0.10" shape="-600.00,41.65 -600.00,41.65"/>
    </edge>
    <edge id=":gneJ158_0" function="internal">
        <lane id=":gneJ158_0_0" index="0" speed="13.89" length="0.10" shape="-610.00,41.65 -610.00,41.65"/>
    </edge>
    <edge id=":gneJ159_0" function="internal">
        <lane id=":gneJ159_0_0" index="0" speed="13.89" length="0.10" shape="-630.00,41.65 -630.00,41.65"/>
    </edge>
    <edge id=":gneJ16_0" function="internal">
        <lane id=":gneJ16_0_0" index="0" speed="13.89" length="12.01" shape="-279.39,-234.60 -276.79,-236.62 -274.61,-238.26 -272.50,-239.98 -270.11,-242.22"/>
    </edge>
    <edge id=":gneJ16_1" function="internal">
        <lane id=":gneJ16_1_0" index="0" speed="13.89" length="12.01" shape="-276.61,-232.18 -275.01,-235.06 -273.72,-237.48 -272.26,-239.77 -270.11,-242.22"/>
    </edge>
    <edge id=":gneJ160_0" function="internal">
        <lane id=":gneJ160_0_0" index="0" speed="13.89" length="13.12" shape="-639.49,45.24 -642.75,44.01 -645.66,42.85 -648.63,41.99 -652.03,41.65"/>
    </edge>
    <edge id=":gneJ160_1" function="internal">
        <lane id=":gneJ160_1_0" index="0" speed="13.89" length="13.12" shape="-638.91,41.65 -652.03,41.65"/>
    </edge>
    <edge id=":gneJ161_0" function="internal">
        <lane id=":gneJ161_0_0" index="0" speed="13.89" length="0.10" shape="-700.00,41.65 -700.00,41.65"/>
    </edge>
    <edge id=":gneJ162_0" function="internal">
        <lane id=":gneJ162_0_0" index="0" speed="13.89" length="0.10" shape="-71.53,540.61 -71.53,540.61"/>
    </edge>
    <edge id=":gneJ163_0" function="internal">
        <lane id=":gneJ163_0_0" index="0" speed="13.89" length="0.13" shape="-91.48,490.74 -91.54,490.62"/>
    </edge>
    <edge id=":gneJ164_0" function="internal">
        <lane id=":gneJ164_0_0" index="0" speed="13.89" length="0.12" shape="-111.42,450.85 -111.48,450.74"/>
    </edge>
    <edge id=":gneJ165_0" function="internal">
        <lane id=":gneJ165_0_0" index="0" speed="13.89" length="0.10" shape="-141.41,400.85 -141.41,400.85"/>
    </edge>
    <edge id=":gneJ166_0" function="internal">
        <lane id=":gneJ166_0_0" index="0" speed="13.89" length="0.16" shape="-171.33,350.99 -171.35,350.95 -171.37,350.92 -171.39,350.90 -171.42,350.86"/>
    </edge>
    <edge id=":gneJ167_0" function="internal">
        <lane id=":gneJ167_0_0" index="0" speed="13.89" length="0.23" shape="-201.18,311.17 -201.22,311.12 -201.25,311.09 -201.28,311.05 -201.33,311.00"/>
    </edge>
    <edge id=":gneJ168_0" function="internal">
        <lane id=":gneJ168_0_0" index="0" speed="13.89" length="17.12" shape="-250.04,262.29 -262.21,250.26"/>
    </edge>
    <edge id=":gneJ168_1" function="internal">
        <lane id=":gneJ168_1_0" index="0" speed="13.89" length="17.12" shape="-247.85,259.54 -251.35,257.43 -255.21,255.14 -258.98,252.72 -262.21,250.26"/>
    </edge>
    <edge id=":gneJ169_0" function="internal">
        <lane id=":gneJ169_0_0" index="0" speed="13.89" length="0.21" shape="-340.93,181.38 -340.97,181.34 -341.01,181.31 -341.04,181.29 -341.09,181.25"/>
    </edge>
    <edge id=":gneJ17_0" function="internal">
        <lane id=":gneJ17_0_0" index="0" speed="13.89" length="0.18" shape="-221.29,-291.04 -221.26,-291.08 -221.23,-291.10 -221.21,-291.13 -221.18,-291.17"/>
    </edge>
    <edge id=":gneJ170_0" function="internal">
        <lane id=":gneJ170_0_0" index="0" speed="13.89" length="0.20" shape="-400.75,141.49 -400.80,141.45 -400.83,141.43 -400.87,141.41 -400.92,141.39"/>
    </edge>
    <edge id=":gneJ171_0" function="internal">
        <lane id=":gneJ171_0_0" index="0" speed="13.89" length="3.00" shape="-458.05,112.82 -460.74,111.48"/>
    </edge>
    <edge id=":gneJ172_0" function="internal">
        <lane id=":gneJ172_0_0" index="0" speed="13.89" length="0.30" shape="-520.47,81.61 -520.55,81.57 -520.60,81.55 -520.66,81.53 -520.74,81.50"/>
    </edge>
    <edge id=":gneJ173_0" function="internal">
        <lane id=":gneJ173_0_0" index="0" speed="13.89" length="0.10" shape="-590.45,61.59 -590.52,61.57"/>
    </edge>
    <edge id=":gneJ174_0" function="internal">
        <lane id=":gneJ174_0_0" index="0" speed="13.89" length="0.17" shape="-81.49,230.74 -81.50,230.69 -81.52,230.66 -81.53,230.63 -81.55,230.59"/>
    </edge>
    <edge id=":gneJ175_0" function="internal">
        <lane id=":gneJ175_0_0" index="0" speed="13.89" length="0.20" shape="-101.39,190.92 -101.41,190.87 -101.43,190.83 -101.45,190.80 -101.49,190.75"/>
    </edge>
    <edge id=":gneJ176_0" function="internal">
        <lane id=":gneJ176_0_0" index="0" speed="13.89" length="0.32" shape="-121.19,161.18 -121.25,161.11 -121.29,161.05 -121.33,161.01 -121.39,160.94"/>
    </edge>
    <edge id=":gneJ177_0" function="internal">
        <lane id=":gneJ177_0_0" index="0" speed="13.89" length="0.10" shape="-141.17,141.17 -141.17,141.17"/>
    </edge>
    <edge id=":gneJ178_0" function="internal">
        <lane id=":gneJ178_0_0" index="0" speed="13.89" length="0.10" shape="-161.17,121.17 -161.17,121.17"/>
    </edge>
    <edge id=":gneJ179_0" function="internal">
        <lane id=":gneJ179_0_0" index="0" speed="13.89" length="0.32" shape="-191.17,91.16 -191.24,91.10 -191.28,91.05 -191.32,91.00 -191.37,90.92"/>
    </edge>
    <edge id=":gneJ18_0" function="internal">
        <lane id=":gneJ18_0_0" index="0" speed="13.89" length="0.25" shape="-181.38,-340.91 -181.23,-341.11"/>
    </edge>
    <edge id=":gneJ180_0" function="internal">
        <lane id=":gneJ180_0_0" index="0" speed="13.89" length="0.11" shape="-211.37,60.91 -211.43,60.82"/>
    </edge>
    <edge id=":gneJ181_0" function="internal">
        <lane id=":gneJ181_0_0" index="0" speed="13.89" length="0.64" shape="-251.44,-9.19 -251.53,-9.35 -251.58,-9.47 -251.61,-9.60 -251.64,-9.79"/>
    </edge>
    <edge id=":gneJ182_0" function="internal">
        <lane id=":gneJ182_0_0" index="0" speed="13.89" length="0.46" shape="-261.64,-89.80 -261.65,-89.94 -261.66,-90.03 -261.65,-90.13 -261.63,-90.26"/>
    </edge>
    <edge id=":gneJ183_0" function="internal">
        <lane id=":gneJ183_0_0" index="0" speed="13.89" length="0.13" shape="-251.63,-150.27 -251.60,-150.40"/>
    </edge>
    <edge id=":gneJ184_0" function="internal">
        <lane id=":gneJ184_0_0" index="0" speed="13.89" length="0.55" shape="-241.60,-190.41 -241.56,-190.57 -241.52,-190.67 -241.47,-190.77 -241.38,-190.91"/>
    </edge>
    <edge id=":gneJ185_0" function="internal">
        <lane id=":gneJ185_0_0" index="0" speed="13.89" length="0.14" shape="-221.37,-220.92 -221.29,-221.03"/>
    </edge>
    <edge id=":gneJ186_0" function="internal">
        <lane id=":gneJ186_0_0" index="0" speed="13.89" length="0.35" shape="-181.28,-271.04 -181.22,-271.12 -181.17,-271.17 -181.12,-271.22 -181.04,-271.28"/>
    </edge>
    <edge id=":gneJ187_0" function="internal">
        <lane id=":gneJ187_0_0" index="0" speed="13.89" length="0.47" shape="-131.02,-311.29 -130.91,-311.38 -130.84,-311.43 -130.75,-311.48 -130.62,-311.53"/>
    </edge>
    <edge id=":gneJ188_0" function="internal">
        <lane id=":gneJ188_0_0" index="0" speed="13.89" length="0.61" shape="-30.60,-351.54 -30.44,-351.60 -30.31,-351.63 -30.19,-351.65 -30.01,-351.65"/>
    </edge>
    <edge id=":gneJ189_0" function="internal">
        <lane id=":gneJ189_0_0" index="0" speed="13.89" length="0.23" shape="30.00,-351.65 30.07,-351.65 30.12,-351.65 30.16,-351.64 30.23,-351.63"/>
    </edge>
    <edge id=":gneJ19_0" function="internal">
        <lane id=":gneJ19_0_0" index="0" speed="13.89" length="0.29" shape="-151.50,-380.76 -151.44,-380.82 -151.41,-380.87 -151.38,-380.92 -151.34,-381.00"/>
    </edge>
    <edge id=":gneJ190_0" function="internal">
        <lane id=":gneJ190_0_0" index="0" speed="13.89" length="0.16" shape="100.24,-341.63 100.28,-341.63 100.32,-341.62 100.35,-341.61 100.40,-341.60"/>
    </edge>
    <edge id=":gneJ191_0" function="internal">
        <lane id=":gneJ191_0_0" index="0" speed="13.89" length="0.35" shape="140.41,-331.60 140.51,-331.57 140.57,-331.55 140.64,-331.52 140.73,-331.48"/>
    </edge>
    <edge id=":gneJ192_0" function="internal">
        <lane id=":gneJ192_0_0" index="0" speed="13.89" length="0.10" shape="180.74,-311.48 180.74,-311.48"/>
    </edge>
    <edge id=":gneJ193_0" function="internal">
        <lane id=":gneJ193_0_0" index="0" speed="13.89" length="0.10" shape="71.53,-280.61 71.56,-280.52"/>
    </edge>
    <edge id=":gneJ194_0" function="internal">
        <lane id=":gneJ194_0_0" index="0" speed="13.89" length="0.23" shape="91.49,-220.74 91.51,-220.68 91.53,-220.63 91.55,-220.59 91.58,-220.53"/>
    </edge>
    <edge id=":gneJ195_0" function="internal">
        <lane id=":gneJ195_0_0" index="0" speed="13.89" length="0.52" shape="111.24,-181.21 111.31,-181.07 111.36,-180.98 111.43,-180.90 111.54,-180.79"/>
    </edge>
    <edge id=":gneJ197_0" function="internal">
        <lane id=":gneJ197_0_0" index="0" speed="13.89" length="0.10" shape="151.17,-141.17 151.17,-141.17"/>
    </edge>
    <edge id=":gneJ198_0" function="internal">
        <lane id=":gneJ198_0_0" index="0" speed="13.89" length="0.32" shape="181.17,-111.16 181.24,-111.10 181.28,-111.05 181.32,-111.00 181.37,-110.92"/>
    </edge>
    <edge id=":gneJ199_0" function="internal">
        <lane id=":gneJ199_0_0" index="0" speed="13.89" length="0.11" shape="201.37,-80.91 201.43,-80.82"/>
    </edge>
    <edge id=":gneJ20_0" function="internal">
        <lane id=":gneJ20_0_0" index="0" speed="13.89" length="3.00" shape="-132.82,-418.05 -131.48,-420.74"/>
    </edge>
    <edge id=":gneJ200_0" function="internal">
        <lane id=":gneJ200_0_0" index="0" speed="13.89" length="0.32" shape="241.44,-10.81 241.48,-10.73 241.51,-10.68 241.53,-10.62 241.56,-10.53"/>
    </edge>
    <edge id=":gneJ201_0" function="internal">
        <lane id=":gneJ201_0_0" index="0" speed="13.89" length="0.52" shape="261.57,49.49 261.61,49.63 261.64,49.73 261.65,49.84 261.65,49.99"/>
    </edge>
    <edge id=":gneJ202_0" function="internal">
        <lane id=":gneJ202_0_0" index="0" speed="13.89" length="0.26" shape="261.65,90.00 261.65,90.08 261.65,90.14 261.64,90.19 261.63,90.27"/>
    </edge>
    <edge id=":gneJ203_0" function="internal">
        <lane id=":gneJ203_0_0" index="0" speed="13.89" length="0.35" shape="251.63,150.28 251.61,150.38 251.59,150.45 251.57,150.51 251.53,150.61"/>
    </edge>
    <edge id=":gneJ204_0" function="internal">
        <lane id=":gneJ204_0_0" index="0" speed="13.89" length="0.13" shape="231.53,200.61 231.48,200.74"/>
    </edge>
    <edge id=":gneJ205_0" function="internal">
        <lane id=":gneJ205_0_0" index="0" speed="13.89" length="0.66" shape="211.47,240.75 211.38,240.92 211.31,241.04 211.21,241.13 211.06,241.26"/>
    </edge>
    <edge id=":gneJ206_0" function="internal">
        <lane id=":gneJ206_0_0" index="0" speed="13.89" length="0.25" shape="151.05,291.27 151.00,291.32 150.96,291.35 150.91,291.37 150.85,291.41"/>
    </edge>
    <edge id=":gneJ207_0" function="internal">
        <lane id=":gneJ207_0_0" index="0" speed="13.89" length="0.35" shape="100.84,321.42 100.75,321.47 100.69,321.50 100.63,321.53 100.53,321.56"/>
    </edge>
    <edge id=":gneJ208_0" function="internal">
        <lane id=":gneJ208_0_0" index="0" speed="13.89" length="0.52" shape="40.51,341.57 40.37,341.61 40.27,341.64 40.16,341.65 40.01,341.65"/>
    </edge>
    <edge id=":gneJ209_0" function="internal">
        <lane id=":gneJ209_0_0" index="0" speed="13.89" length="0.45" shape="-70.01,341.65 -70.14,341.65 -70.23,341.64 -70.32,341.62 -70.45,341.59"/>
    </edge>
    <edge id=":gneJ21_0" function="internal">
        <lane id=":gneJ21_0_0" index="0" speed="13.89" length="3.00" shape="-112.82,-458.05 -111.48,-460.74"/>
    </edge>
    <edge id=":gneJ210_0" function="internal">
        <lane id=":gneJ210_0_0" index="0" speed="13.89" length="0.30" shape="-140.46,321.59 -140.54,321.56 -140.60,321.54 -140.65,321.52 -140.73,321.48"/>
    </edge>
    <edge id=":gneJ211_0" function="internal">
        <lane id=":gneJ211_0_0" index="0" speed="13.89" length="0.15" shape="-180.74,301.47 -180.78,301.45 -180.81,301.44 -180.83,301.42 -180.87,301.40"/>
    </edge>
    <edge id=":gneJ215_0" function="internal">
        <lane id=":gneJ215_0_0" index="0" speed="13.89" length="0.10" shape="700.00,31.65 700.00,31.65"/>
    </edge>
    <edge id=":gneJ216_0" function="internal">
        <lane id=":gneJ216_0_0" index="0" speed="13.89" length="0.10" shape="-700.00,31.65 -700.00,31.65"/>
    </edge>
    <edge id=":gneJ218_0" function="internal">
        <lane id=":gneJ218_0_0" index="0" speed="13.89" length="0.10" shape="-700.00,21.65 -700.00,21.65"/>
    </edge>
    <edge id=":gneJ219_0" function="internal">
        <lane id=":gneJ219_0_0" index="0" speed="13.89" length="0.10" shape="-700.00,-41.65 -700.00,-41.65"/>
    </edge>
    <edge id=":gneJ22_0" function="internal">
        <lane id=":gneJ22_0_0" index="0" speed="13.89" length="0.13" shape="-81.54,-520.62 -81.48,-520.74"/>
    </edge>
    <edge id=":gneJ220_0" function="internal">
        <lane id=":gneJ220_0_0" index="0" speed="13.89" length="0.10" shape="700.00,-41.65 700.00,-41.65"/>
    </edge>
    <edge id=":gneJ221_0" function="internal">
        <lane id=":gneJ221_0_0" index="0" speed="13.89" length="0.10" shape="-700.00,-31.65 -700.00,-31.65"/>
    </edge>
    <edge id=":gneJ222_0" function="internal">
        <lane id=":gneJ222_0_0" index="0" speed="13.89" length="0.10" shape="700.00,-31.65 700.00,-31.65"/>
    </edge>
    <edge id=":gneJ223_0" function="internal">
        <lane id=":gneJ223_0_0" index="0" speed="13.89" length="0.10" shape="41.65,-700.00 41.65,-700.00"/>
    </edge>
    <edge id=":gneJ225_0" function="internal">
        <lane id=":gneJ225_0_0" index="0" speed="13.89" length="0.10" shape="31.65,-700.00 31.65,-700.00"/>
    </edge>
    <edge id=":gneJ226_0" function="internal">
        <lane id=":gneJ226_0_0" index="0" speed="13.89" length="0.10" shape="31.65,690.00 31.65,690.00"/>
    </edge>
    <edge id=":gneJ227_0" function="internal">
        <lane id=":gneJ227_0_0" index="0" speed="13.89" length="0.10" shape="-41.65,690.00 -41.65,690.00"/>
    </edge>
    <edge id=":gneJ228_0" function="internal">
        <lane id=":gneJ228_0_0" index="0" speed="13.89" length="0.10" shape="-41.65,-700.00 -41.65,-700.00"/>
    </edge>
    <edge id=":gneJ229_0" function="internal">
        <lane id=":gneJ229_0_0" index="0" speed="13.89" length="0.10" shape="-31.65,690.00 -31.65,690.00"/>
    </edge>
    <edge id=":gneJ23_0" function="internal">
        <lane id=":gneJ23_0_0" index="0" speed="13.89" length="0.41" shape="-61.69,-570.22 -61.64,-570.34 -61.62,-570.42 -61.60,-570.50 -61.59,-570.62"/>
    </edge>
    <edge id=":gneJ230_0" function="internal">
        <lane id=":gneJ230_0_0" index="0" speed="13.89" length="0.10" shape="-31.65,-700.00 -31.65,-700.00"/>
    </edge>
    <edge id=":gneJ231_0" function="internal">
        <lane id=":gneJ231_0_0" index="0" speed="13.89" length="25.62" shape="-1388.27,21.65 -1393.65,22.08 -1400.98,23.08 -1408.30,24.22 -1413.66,25.05"/>
    </edge>
    <edge id=":gneJ231_1" function="internal">
        <lane id=":gneJ231_1_0" index="0" speed="13.89" length="25.63" shape="-1388.27,21.65 -1413.90,21.65"/>
    </edge>
    <edge id=":gneJ232_0" function="internal">
        <lane id=":gneJ232_0_0" index="0" speed="13.89" length="25.39" shape="-1388.50,31.65 -1393.85,32.08 -1401.10,33.08 -1408.34,34.22 -1413.66,35.05"/>
    </edge>
    <edge id=":gneJ232_1" function="internal">
        <lane id=":gneJ232_1_0" index="0" speed="13.89" length="25.63" shape="-1388.50,31.65 -1414.13,31.65"/>
    </edge>
    <edge id=":gneJ232_2" function="internal">
        <lane id=":gneJ232_2_0" index="0" speed="13.89" length="25.62" shape="-1388.50,31.65 -1393.88,31.22 -1401.22,30.22 -1408.54,29.08 -1413.89,28.25"/>
    </edge>
    <edge id=":gneJ233_0" function="internal">
        <lane id=":gneJ233_0_0" index="0" speed="13.89" length="25.63" shape="-1388.50,41.65 -1414.13,41.65"/>
    </edge>
    <edge id=":gneJ233_1" function="internal">
        <lane id=":gneJ233_1_0" index="0" speed="13.89" length="25.62" shape="-1388.50,41.65 -1393.88,41.22 -1401.22,40.22 -1408.54,39.08 -1413.89,38.25"/>
    </edge>
    <edge id=":gneJ234_0" function="internal">
        <lane id=":gneJ234_0_0" index="0" speed="13.89" length="25.63" shape="-1414.13,-51.65 -1388.50,-51.65"/>
    </edge>
    <edge id=":gneJ234_1" function="internal">
        <lane id=":gneJ234_1_0" index="0" speed="13.89" length="25.62" shape="-1413.89,-48.25 -1408.54,-49.08 -1401.22,-50.22 -1393.88,-51.22 -1388.50,-51.65"/>
    </edge>
    <edge id=":gneJ235_0" function="internal">
        <lane id=":gneJ235_0_0" index="0" speed="13.89" length="25.62" shape="-1413.66,-45.05 -1408.30,-44.22 -1400.98,-43.08 -1393.65,-42.08 -1388.27,-41.65"/>
    </edge>
    <edge id=":gneJ235_1" function="internal">
        <lane id=":gneJ235_1_0" index="0" speed="13.89" length="25.86" shape="-1414.13,-41.65 -1388.27,-41.65"/>
    </edge>
    <edge id=":gneJ235_2" function="internal">