<?xml version="1.0" encoding="UTF-8"?>

<!-- generated on 6/25/2018 7:40:47 PM by Netedit Version 0.32.0
<?xml version="1.0" encoding="UTF-8"?>

<configuration xmlns:xsi="http://www.w3.org/2001/XMLSchema-instance" xsi:noNamespaceSchemaLocation="http://sumo.dlr.de/xsd/netconvertConfiguration.xsd">

    <output>
        <output-file value="C:\Users\abeld\Documents\School\Year%202\Project%202-2\Project_2.2\core\assets\Intersection\Turbine\Turbine.net.xml"/>
        <plain-output-prefix value="C:\Users\abeld\Documents\School\Year%202\Project%202-2\Project_2.2\core\assets\Intersection\Turbine\Turbine"/>
    </output>

    <processing>
        <no-turnarounds value="true"/>
        <offset.disable-normalization value="true"/>
    </processing>

</configuration>
-->

<edges version="0.27" xmlns:xsi="http://www.w3.org/2001/XMLSchema-instance" xsi:noNamespaceSchemaLocation="http://sumo.dlr.de/xsd/edges_file.xsd">
    <edge id="gneE10" from="gneJ14" to="gneJ15" priority="1" numLanes="1" speed="13.89"/>
    <edge id="gneE100" from="gneJ105" to="gneJ106" priority="1" numLanes="1" speed="13.89"/>
    <edge id="gneE101" from="gneJ106" to="gneJ107" priority="1" numLanes="1" speed="13.89"/>
    <edge id="gneE102" from="gneJ107" to="gneJ108" priority="1" numLanes="1" speed="13.89"/>
    <edge id="gneE103" from="gneJ108" to="gneJ109" priority="1" numLanes="1" speed="13.89"/>
    <edge id="gneE104" from="gneJ109" to="gneJ110" priority="1" numLanes="1" speed="13.89"/>
    <edge id="gneE105" from="gneJ110" to="gneJ111" priority="1" numLanes="1" speed="13.89"/>
    <edge id="gneE106" from="gneJ111" to="gneJ112" priority="1" numLanes="1" speed="13.89"/>
    <edge id="gneE107" from="gneJ112" to="gneJ113" priority="1" numLanes="1" speed="13.89"/>
    <edge id="gneE108" from="gneJ113" to="gneJ114" priority="1" numLanes="1" speed="13.89"/>
    <edge id="gneE109" from="gneJ114" to="gneJ115" priority="1" numLanes="1" speed="13.89"/>
    <edge id="gneE11" from="gneJ15" to="gneJ16" priority="1" numLanes="1" speed="13.89"/>
    <edge id="gneE111" from="gneJ115" to="gneJ117" priority="1" numLanes="1" speed="13.89"/>
    <edge id="gneE112" from="gneJ117" to="gneJ118" priority="1" numLanes="1" speed="13.89"/>
    <edge id="gneE113" from="gneJ118" to="gneJ119" priority="1" numLanes="1" speed="13.89"/>
    <edge id="gneE114" from="gneJ119" to="gneJ120" priority="1" numLanes="1" speed="13.89"/>
    <edge id="gneE115" from="gneJ120" to="gneJ121" priority="1" numLanes="1" speed="13.89"/>
    <edge id="gneE116" from="gneJ121" to="gneJ122" priority="1" numLanes="1" speed="13.89"/>
    <edge id="gneE117" from="gneJ122" to="gneJ70" priority="1" numLanes="1" speed="13.89"/>
    <edge id="gneE118" from="gneJ106" to="gneJ123" priority="1" numLanes="1" speed="13.89"/>
    <edge id="gneE119" from="gneJ123" to="gneJ124" priority="1" numLanes="1" speed="13.89"/>
    <edge id="gneE12" from="gneJ16" to="gneJ17" priority="1" numLanes="1" speed="13.89"/>
    <edge id="gneE120" from="gneJ124" to="gneJ125" priority="1" numLanes="1" speed="13.89"/>
    <edge id="gneE121" from="gneJ125" to="gneJ126" priority="1" numLanes="1" speed="13.89"/>
    <edge id="gneE122" from="gneJ126" to="gneJ127" priority="1" numLanes="1" speed="13.89"/>
    <edge id="gneE123" from="gneJ127" to="gneJ128" priority="1" numLanes="1" speed="13.89"/>
    <edge id="gneE124" from="gneJ128" to="gneJ129" priority="1" numLanes="1" speed="13.89"/>
    <edge id="gneE125" from="gneJ129" to="gneJ130" priority="1" numLanes="1" speed="13.89"/>
    <edge id="gneE126" from="gneJ130" to="gneJ131" priority="1" numLanes="1" speed="13.89"/>
    <edge id="gneE127" from="gneJ131" to="gneJ132" priority="1" numLanes="1" speed="13.89"/>
    <edge id="gneE128" from="gneJ132" to="gneJ133" priority="1" numLanes="1" speed="13.89"/>
    <edge id="gneE129" from="gneJ133" to="gneJ134" priority="1" numLanes="1" speed="13.89"/>
    <edge id="gneE13" from="gneJ17" to="gneJ18" priority="1" numLanes="1" speed="13.89"/>
    <edge id="gneE130" from="gneJ134" to="gneJ135" priority="1" numLanes="1" speed="13.89"/>
    <edge id="gneE131" from="gneJ135" to="gneJ100" priority="1" numLanes="1" speed="13.89"/>
    <edge id="gneE132" from="gneJ136" to="gneJ137" priority="1" numLanes="1" speed="13.89"/>
    <edge id="gneE134" from="gneJ137" to="gneJ140" priority="1" numLanes="1" speed="13.89"/>
    <edge id="gneE135" from="gneJ140" to="gneJ141" priority="1" numLanes="1" speed="13.89"/>
    <edge id="gneE136" from="gneJ141" to="gneJ142" priority="1" numLanes="1" speed="13.89"/>
    <edge id="gneE137" from="gneJ142" to="gneJ143" priority="1" numLanes="1" speed="13.89"/>
    <edge id="gneE138" from="gneJ143" to="gneJ144" priority="1" numLanes="1" speed="13.89"/>
    <edge id="gneE139" from="gneJ144" to="gneJ145" priority="1" numLanes="1" speed="13.89"/>
    <edge id="gneE14" from="gneJ18" to="gneJ19" priority="1" numLanes="1" speed="13.89"/>
    <edge id="gneE140" from="gneJ145" to="gneJ146" priority="1" numLanes="1" speed="13.89"/>
    <edge id="gneE141" from="gneJ146" to="gneJ147" priority="1" numLanes="1" speed="13.89"/>
    <edge id="gneE142" from="gneJ147" to="gneJ148" priority="1" numLanes="1" speed="13.89"/>
    <edge id="gneE143" from="gneJ148" to="gneJ149" priority="1" numLanes="1" speed="13.89"/>
    <edge id="gneE144" from="gneJ149" to="gneJ150" priority="1" numLanes="1" speed="13.89"/>
    <edge id="gneE145" from="gneJ150" to="gneJ151" priority="1" numLanes="1" speed="13.89"/>
    <edge id="gneE146" from="gneJ151" to="gneJ152" priority="1" numLanes="1" speed="13.89"/>
    <edge id="gneE147" from="gneJ152" to="gneJ153" priority="1" numLanes="1" speed="13.89"/>
    <edge id="gneE148" from="gneJ153" to="gneJ24" priority="1" numLanes="1" speed="13.89"/>
    <edge id="gneE149" from="gneJ30" to="gneJ154" priority="1" numLanes="1" speed="13.89"/>
    <edge id="gneE15" from="gneJ19" to="gneJ20" priority="1" numLanes="1" speed="13.89"/>
    <edge id="gneE150" from="gneJ154" to="gneJ155" priority="1" numLanes="1" speed="13.89"/>
    <edge id="gneE151" from="gneJ155" to="gneJ156" priority="1" numLanes="1" speed="13.89"/>
    <edge id="gneE152" from="gneJ157" to="gneJ158" priority="1" numLanes="1" speed="13.89"/>
    <edge id="gneE153" from="gneJ156" to="gneJ157" priority="1" numLanes="1" speed="13.89"/>
    <edge id="gneE154" from="gneJ158" to="gneJ159" priority="1" numLanes="1" speed="13.89"/>
    <edge id="gneE155" from="gneJ159" to="gneJ160" priority="1" numLanes="1" speed="13.89"/>
    <edge id="gneE156" from="gneJ160" to="gneJ161" priority="1" numLanes="1" speed="13.89"/>
    <edge id="gneE157" from="gneJ142" to="gneJ162" priority="1" numLanes="1" speed="13.89"/>
    <edge id="gneE158" from="gneJ162" to="gneJ163" priority="1" numLanes="1" speed="13.89"/>
    <edge id="gneE159" from="gneJ163" to="gneJ164" priority="1" numLanes="1" speed="13.89"/>
    <edge id="gneE16" from="gneJ20" to="gneJ21" priority="1" numLanes="1" speed="13.89"/>
    <edge id="gneE160" from="gneJ164" to="gneJ165" priority="1" numLanes="1" speed="13.89"/>
    <edge id="gneE161" from="gneJ165" to="gneJ166" priority="1" numLanes="1" speed="13.89"/>
    <edge id="gneE162" from="gneJ166" to="gneJ167" priority="1" numLanes="1" speed="13.89"/>
    <edge id="gneE163" from="gneJ167" to="gneJ168" priority="1" numLanes="1" speed="13.89"/>
    <edge id="gneE164" from="gneJ168" to="gneJ169" priority="1" numLanes="1" speed="13.89"/>
    <edge id="gneE165" from="gneJ169" to="gneJ170" priority="1" numLanes="1" speed="13.89"/>
    <edge id="gneE166" from="gneJ170" to="gneJ171" priority="1" numLanes="1" speed="13.89"/>
    <edge id="gneE167" from="gneJ171" to="gneJ172" priority="1" numLanes="1" speed="13.89"/>
    <edge id="gneE168" from="gneJ172" to="gneJ173" priority="1" numLanes="1" speed="13.89"/>
    <edge id="gneE169" from="gneJ173" to="gneJ160" priority="1" numLanes="1" speed="13.89"/>
    <edge id="gneE17" from="gneJ21" to="gneJ22" priority="1" numLanes="1" speed="13.89"/>
    <edge id="gneE170" from="gneJ147" to="gneJ174" priority="1" numLanes="1" speed="13.89"/>
    <edge id="gneE171" from="gneJ174" to="gneJ175" priority="1" numLanes="1" speed="13.89"/>
    <edge id="gneE172" from="gneJ175" to="gneJ176" priority="1" numLanes="1" speed="13.89"/>
    <edge id="gneE173" from="gneJ176" to="gneJ177" priority="1" numLanes="1" speed="13.89"/>
    <edge id="gneE174" from="gneJ177" to="gneJ178" priority="1" numLanes="1" speed="13.89"/>
    <edge id="gneE175" from="gneJ178" to="gneJ179" priority="1" numLanes="1" speed="13.89"/>
    <edge id="gneE176" from="gneJ179" to="gneJ180" priority="1" numLanes="1" speed="13.89"/>
    <edge id="gneE177" from="gneJ180" to="gneJ181" priority="1" numLanes="1" speed="13.89"/>
    <edge id="gneE178" from="gneJ181" to="gneJ182" priority="1" numLanes="1" speed="13.89"/>
    <edge id="gneE179" from="gneJ182" to="gneJ183" priority="1" numLanes="1" speed="13.89"/>
    <edge id="gneE18" from="gneJ22" to="gneJ23" priority="1" numLanes="1" speed="13.89"/>
    <edge id="gneE180" from="gneJ183" to="gneJ184" priority="1" numLanes="1" speed="13.89"/>
    <edge id="gneE181" from="gneJ184" to="gneJ185" priority="1" numLanes="1" speed="13.89"/>
    <edge id="gneE182" from="gneJ185" to="gneJ186" priority="1" numLanes="1" speed="13.89"/>
    <edge id="gneE183" from="gneJ186" to="gneJ187" priority="1" numLanes="1" speed="13.89"/>
    <edge id="gneE184" from="gneJ187" to="gneJ188" priority="1" numLanes="1" speed="13.89"/>
    <edge id="gneE185" from="gneJ188" to="gneJ189" priority="1" numLanes="1" speed="13.89"/>
    <edge id="gneE186" from="gneJ189" to="gneJ190" priority="1" numLanes="1" speed="13.89"/>
    <edge id="gneE187" from="gneJ190" to="gneJ191" priority="1" numLanes="1" speed="13.89"/>
    <edge id="gneE188" from="gneJ191" to="gneJ192" priority="1" numLanes="1" speed="13.89"/>
    <edge id="gneE189" from="gneJ192" to="gneJ128" priority="1" numLanes="1" speed="13.89"/>
    <edge id="gneE19" from="gneJ23" to="gneJ24" priority="1" numLanes="1" speed="13.89"/>
    <edge id="gneE190" from="gneJ112" to="gneJ193" priority="1" numLanes="1" speed="13.89"/>
    <edge id="gneE191" from="gneJ193" to="gneJ194" priority="1" numLanes="1" speed="13.89"/>
    <edge id="gneE192" from="gneJ194" to="gneJ195" priority="1" numLanes="1" speed="13.89"/>
    <edge id="gneE194" from="gneJ195" to="gneJ197" priority="1" numLanes="1" speed="13.89"/>
    <edge id="gneE195" from="gneJ197" to="gneJ198" priority="1" numLanes="1" speed="13.89"/>
    <edge id="gneE196" from="gneJ198" to="gneJ199" priority="1" numLanes="1" speed="13.89"/>
    <edge id="gneE197" from="gneJ199" to="gneJ200" priority="1" numLanes="1" speed="13.89"/>
    <edge id="gneE198" from="gneJ200" to="gneJ201" priority="1" numLanes="1" speed="13.89"/>
    <edge id="gneE199" from="gneJ201" to="gneJ202" priority="1" numLanes="1" speed="13.89"/>
    <edge id="gneE20" from="gneJ24" to="gneJ25" priority="1" numLanes="1" speed="13.89"/>
    <edge id="gneE200" from="gneJ202" to="gneJ203" priority="1" numLanes="1" speed="13.89"/>
    <edge id="gneE201" from="gneJ203" to="gneJ204" priority="1" numLanes="1" speed="13.89"/>
    <edge id="gneE202" from="gneJ204" to="gneJ205" priority="1" numLanes="1" speed="13.89"/>
    <edge id="gneE203" from="gneJ205" to="gneJ206" priority="1" numLanes="1" speed="13.89"/>
    <edge id="gneE204" from="gneJ206" to="gneJ207" priority="1" numLanes="1" speed="13.89"/>
    <edge id="gneE205" from="gneJ207" to="gneJ208" priority="1" numLanes="1" speed="13.89"/>
    <edge id="gneE206" from="gneJ208" to="gneJ209" priority="1" numLanes="1" speed="13.89"/>
    <edge id="gneE207" from="gneJ209" to="gneJ210" priority="1" numLanes="1" speed="13.89"/>
    <edge id="gneE208" from="gneJ210" to="gneJ211" priority="1" numLanes="1" speed="13.89"/>
    <edge id="gneE209" from="gneJ211" to="gneJ168" priority="1" numLanes="1" speed="13.89"/>
    <edge id="gneE21" from="gneJ26" to="gneJ27" priority="1" numLanes="1" speed="13.89"/>
    <edge id="gneE212" from="gneJ215" to="gneJ216" priority="1" numLanes="1" speed="13.89"/>
    <edge id="gneE213" from="gneJ217" to="gneJ218" priority="1" numLanes="1" speed="13.89"/>
    <edge id="gneE214" from="gneJ219" to="gneJ220" priority="1" numLanes="1" speed="13.89"/>
    <edge id="gneE215" from="gneJ221" to="gneJ222" priority="1" numLanes="1" speed="13.89"/>
    <edge id="gneE216" from="gneJ223" to="gneJ224" priority="1" numLanes="1" speed="13.89"/>
    <edge id="gneE217" from="gneJ225" to="gneJ226" priority="1" numLanes="1" speed="13.89"/>
    <edge id="gneE218" from="gneJ227" to="gneJ228" priority="1" numLanes="1" speed="13.89"/>
    <edge id="gneE219" from="gneJ229" to="gneJ230" priority="1" numLanes="1" speed="13.89"/>
    <edge id="gneE22" from="gneJ27" to="gneJ28" priority="1" numLanes="1" speed="13.89"/>
    <edge id="gneE220" from="gneJ218" to="gneJ231" priority="1" numLanes="1" speed="13.89"/>
    <edge id="gneE221" from="gneJ216" to="gneJ232" priority="1" numLanes="1" speed="13.89"/>
    <edge id="gneE222" from="gneJ161" to="gneJ233" priority="1" numLanes="1" speed="13.89"/>
    <edge id="gneE223" from="gneJ234" to="gneJ6" priority="1" numLanes="1" speed="13.89"/>
    <edge id="gneE224" from="gneJ235" to="gneJ219" priority="1" numLanes="1" speed="13.89"/>
    <edge id="gneE225" from="gneJ236" to="gneJ221" priority="1" numLanes="1" speed="13.89"/>
    <edge id="gneE226" from="gneJ222" to="gneJ237" priority="1" numLanes="1" speed="13.89"/>
    <edge id="gneE227" from="gneJ220" to="gneJ238" priority="1" numLanes="1" speed="13.89"/>
    <edge id="gneE228" from="gneJ102" to="gneJ239" priority="1" numLanes="1" speed="13.89"/>
    <edge id="gneE229" from="gneJ240" to="gneJ241" priority="1" numLanes="1" speed="13.89"/>
    <edge id="gneE23" from="gneJ28" to="gneJ29" priority="1" numLanes="1" speed="13.89"/>
    <edge id="gneE230" from="gneJ242" to="gneJ215" priority="1" numLanes="1" speed="13.89"/>
    <edge id="gneE231" from="gneJ243" to="gneJ26" priority="1" numLanes="1" speed="13.89"/>
    <edge id="gneE232" from="gneJ244" to="gneJ225" priority="1" numLanes="1" speed="13.89"/>
    <edge id="gneE233" from="gneJ245" to="gneJ223" priority="1" numLanes="1" speed="13.89"/>
    <edge id="gneE235" from="gneJ248" to="gneJ103" priority="1" numLanes="1" speed="13.89"/>
    <edge id="gneE236" from="gneJ230" to="gneJ249" priority="1" numLanes="1" speed="13.89"/>
    <edge id="gneE237" from="gneJ228" to="gneJ250" priority="1" numLanes="1" speed="13.89"/>
    <edge id="gneE238" from="gneJ25" to="gneJ251" priority="1" numLanes="1" speed="13.89"/>
    <edge id="gneE239" from="gneJ226" to="gneJ252" priority="1" numLanes="1" speed="13.89"/>
    <edge id="gneE24" from="gneJ29" to="gneJ30" priority="1" numLanes="1" speed="13.89"/>
    <edge id="gneE240" from="gneJ253" to="gneJ254" priority="1" numLanes="1" speed="13.89"/>
    <edge id="gneE241" from="gneJ71" to="gneJ255" priority="1" numLanes="1" speed="13.89"/>
    <edge id="gneE242" from="gneJ256" to="gneJ229" priority="1" numLanes="1" speed="13.89"/>
    <edge id="gneE243" from="gneJ257" to="gneJ227" priority="1" numLanes="1" speed="13.89"/>
    <edge id="gneE244" from="gneJ258" to="gneJ136" priority="1" numLanes="1" speed="13.89"/>
    <edge id="gneE245" from="gneJ237" to="gneJ259" priority="1" numLanes="1" speed="13.89"/>
    <edge id="gneE246" from="gneJ259" to="gneJ260" priority="1" numLanes="1" speed="13.89"/>
    <edge id="gneE247" from="gneJ260" to="gneJ261" priority="1" numLanes="1" speed="13.89"/>
    <edge id="gneE248" from="gneJ261" to="gneJ262" priority="1" numLanes="1" speed="13.89"/>
    <edge id="gneE249" from="gneJ262" to="gneJ263" priority="1" numLanes="1" speed="13.89"/>
    <edge id="gneE25" from="gneJ30" to="gneJ31" priority="1" numLanes="1" speed="13.89"/>
    <edge id="gneE250" from="gneJ263" to="east-out1" priority="1" numLanes="1" speed="13.89"/>
    <edge id="gneE251" from="gneJ238" to="gneJ265" priority="1" numLanes="1" speed="13.89"/>
    <edge id="gneE252" from="gneJ265" to="gneJ266" priority="1" numLanes="1" speed="13.89"/>
    <edge id="gneE253" from="gneJ266" to="gneJ267" priority="1" numLanes="1" speed="13.89"/>
    <edge id="gneE254" from="gneJ267" to="gneJ268" priority="1" numLanes="1" speed="13.89"/>
    <edge id="gneE255" from="gneJ268" to="gneJ269" priority="1" numLanes="1" speed="13.89"/>
    <edge id="gneE256" from="gneJ269" to="east-out2" priority="1" numLanes="1" speed="13.89"/>
    <edge id="gneE257" from="east1" to="gneJ272" priority="1" numLanes="1" speed="13.89"/>
    <edge id="gneE258" from="gneJ272" to="gneJ273" priority="1" numLanes="1" speed="13.89"/>
    <edge id="gneE259" from="gneJ273" to="gneJ274" priority="1" numLanes="1" speed="13.89"/>
    <edge id="gneE26" from="gneJ31" to="gneJ32" priority="1" numLanes="1" speed="13.89"/>
    <edge id="gneE260" from="gneJ274" to="gneJ275" priority="1" numLanes="1" speed="13.89"/>
    <edge id="gneE261" from="gneJ275" to="gneJ276" priority="1" numLanes="1" speed="13.89"/>
    <edge id="gneE262" from="gneJ276" to="gneJ240" priority="1" numLanes="1" speed="13.89"/>
    <edge id="gneE263" from="east2" to="gneJ278" priority="1" numLanes="1" speed="13.89"/>
    <edge id="gneE264" from="gneJ278" to="gneJ279" priority="1" numLanes="1" speed="13.89"/>
    <edge id="gneE266" from="gneJ279" to="gneJ282" priority="1" numLanes="1" speed="13.89"/>
    <edge id="gneE267" from="gneJ282" to="gneJ283" priority="1" numLanes="1" speed="13.89"/>
    <edge id="gneE268" from="gneJ283" to="gneJ284" priority="1" numLanes="1" speed="13.89"/>
    <edge id="gneE269" from="gneJ284" to="gneJ242" priority="1" numLanes="1" speed="13.89"/>
    <edge id="gneE27" from="gneJ32" to="gneJ33" priority="1" numLanes="1" speed="13.89"/>
    <edge id="gneE270" from="east3" to="gneJ286" priority="1" numLanes="1" speed="13.89"/>
    <edge id="gneE271" from="gneJ286" to="gneJ287" priority="1" numLanes="1" speed="13.89"/>
    <edge id="gneE272" from="gneJ287" to="gneJ288" priority="1" numLanes="1" speed="13.89"/>
    <edge id="gneE273" from="gneJ288" to="gneJ289" priority="1" numLanes="1" speed="13.89"/>
    <edge id="gneE274" from="gneJ289" to="gneJ290" priority="1" numLanes="1" speed="13.89"/>
    <edge id="gneE275" from="gneJ290" to="gneJ243" priority="1" numLanes="1" speed="13.89"/>
    <edge id="gneE276" from="gneJ239" to="gneJ291" priority="1" numLanes="1" speed="13.89"/>
    <edge id="gneE277" from="gneJ291" to="gneJ292" priority="1" numLanes="1" speed="13.89"/>
    <edge id="gneE278" from="gneJ292" to="gneJ293" priority="1" numLanes="1" speed="13.89"/>
    <edge id="gneE279" from="gneJ293" to="gneJ294" priority="1" numLanes="1" speed="13.89"/>
    <edge id="gneE28" from="gneJ33" to="gneJ34" priority="1" numLanes="1" speed="13.89"/>
    <edge id="gneE280" from="gneJ294" to="gneJ295" priority="1" numLanes="1" speed="13.89"/>
    <edge id="gneE281" from="gneJ295" to="east-out3" priority="1" numLanes="1" speed="13.89"/>
    <edge id="gneE282" from="gneJ237" to="gneJ265" priority="1" numLanes="1" speed="13.89"/>
    <edge id="gneE283" from="gneJ238" to="gneJ259" priority="1" numLanes="1" speed="13.89"/>
    <edge id="gneE284" from="gneJ239" to="gneJ265" priority="1" numLanes="1" speed="13.89"/>
    <edge id="gneE285" from="gneJ238" to="gneJ291" priority="1" numLanes="1" speed="13.89"/>
    <edge id="gneE286" from="gneJ260" to="gneJ267" priority="1" numLanes="1" speed="13.89"/>
    <edge id="gneE287" from="gneJ266" to="gneJ261" priority="1" numLanes="1" speed="13.89"/>
    <edge id="gneE288" from="gneJ292" to="gneJ267" priority="1" numLanes="1" speed="13.89"/>
    <edge id="gneE289" from="gneJ266" to="gneJ293" priority="1" numLanes="1" speed="13.89"/>
    <edge id="gneE29" from="gneJ34" to="gneJ35" priority="1" numLanes="1" speed="13.89"/>
    <edge id="gneE290" from="gneJ262" to="gneJ269" priority="1" numLanes="1" speed="13.89"/>
    <edge id="gneE292" from="gneJ268" to="gneJ263" priority="1" numLanes="1" speed="13.89"/>
    <edge id="gneE293" from="gneJ268" to="gneJ295" priority="1" numLanes="1" speed="13.89"/>
    <edge id="gneE294" from="gneJ294" to="gneJ269" priority="1" numLanes="1" speed="13.89"/>
    <edge id="gneE295" from="gneJ286" to="gneJ279" priority="1" numLanes="1" speed="13.89"/>
    <edge id="gneE296" from="gneJ278" to="gneJ287" priority="1" numLanes="1" speed="13.89"/>
    <edge id="gneE297" from="gneJ272" to="gneJ279" priority="1" numLanes="1" speed="13.89"/>
    <edge id="gneE298" from="gneJ278" to="gneJ273" priority="1" numLanes="1" speed="13.89"/>
    <edge id="gneE299" from="gneJ288" to="gneJ283" priority="1" numLanes="1" speed="13.89"/>
    <edge id="gneE3" from="gneJ6" to="gneJ7" priority="1" numLanes="1" speed="13.89"/>
    <edge id="gneE30" from="gneJ35" to="gneJ36" priority="1" numLanes="1" speed="13.89"/>
    <edge id="gneE300" from="gneJ282" to="gneJ275" priority="1" numLanes="1" speed="13.89"/>
    <edge id="gneE301" from="gneJ274" to="gneJ283" priority="1" numLanes="1" speed="13.89"/>
    <edge id="gneE302" from="gneJ282" to="gneJ289" priority="1" numLanes="1" speed="13.89"/>
    <edge id="gneE303" from="gneJ290" to="gneJ242" priority="1" numLanes="1" speed="13.89"/>
    <edge id="gneE304" from="gneJ284" to="gneJ243" priority="1" numLanes="1" speed="13.89"/>
    <edge id="gneE305" from="gneJ276" to="gneJ242" priority="1" numLanes="1" speed="13.89"/>
    <edge id="gneE306" from="gneJ284" to="gneJ240" priority="1" numLanes="1" speed="13.89"/>
    <edge id="gneE307" from="gneJ251" to="gneJ298" priority="1" numLanes="1" speed="13.89"/>
    <edge id="gneE308" from="gneJ298" to="gneJ299" priority="1" numLanes="1" speed="13.89"/>
    <edge id="gneE309" from="gneJ250" to="gneJ300" priority="1" numLanes="1" speed="13.89"/>
    <edge id="gneE31" from="gneJ36" to="gneJ37" priority="1" numLanes="1" speed="13.89"/>
    <edge id="gneE310" from="gneJ300" to="gneJ301" priority="1" numLanes="1" speed="13.89"/>
    <edge id="gneE311" from="gneJ249" to="gneJ302" priority="1" numLanes="1" speed="13.89"/>
    <edge id="gneE312" from="gneJ302" to="gneJ303" priority="1" numLanes="1" speed="13.89"/>
    <edge id="gneE313" from="gneJ304" to="gneJ305" priority="1" numLanes="1" speed="13.89"/>
    <edge id="gneE314" from="gneJ305" to="gneJ244" priority="1" numLanes="1" speed="13.89"/>
    <edge id="gneE315" from="gneJ306" to="gneJ307" priority="1" numLanes="1" speed="13.89"/>
    <edge id="gneE316" from="gneJ307" to="gneJ245" priority="1" numLanes="1" speed="13.89"/>
    <edge id="gneE317" from="gneJ308" to="gneJ309" priority="1" numLanes="1" speed="13.89"/>
    <edge id="gneE318" from="gneJ309" to="gneJ248" priority="1" numLanes="1" speed="13.89"/>
    <edge id="gneE319" from="gneJ299" to="gneJ310" priority="1" numLanes="1" speed="13.89"/>
    <edge id="gneE32" from="gneJ37" to="gneJ38" priority="1" numLanes="1" speed="13.89"/>
    <edge id="gneE320" from="gneJ301" to="gneJ311" priority="1" numLanes="1" speed="13.89"/>
    <edge id="gneE321" from="gneJ303" to="gneJ312" priority="1" numLanes="1" speed="13.89"/>
    <edge id="gneE322" from="gneJ310" to="gneJ313" priority="1" numLanes="1" speed="13.89"/>
    <edge id="gneE323" from="gneJ311" to="gneJ314" priority="1" numLanes="1" speed="13.89"/>
    <edge id="gneE324" from="gneJ312" to="gneJ315" priority="1" numLanes="1" speed="13.89"/>
    <edge id="gneE325" from="gneJ316" to="gneJ317" priority="1" numLanes="1" speed="13.89"/>
    <edge id="gneE326" from="gneJ317" to="gneJ304" priority="1" numLanes="1" speed="13.89"/>
    <edge id="gneE327" from="gneJ318" to="gneJ319" priority="1" numLanes="1" speed="13.89"/>
    <edge id="gneE328" from="gneJ319" to="gneJ306" priority="1" numLanes="1" speed="13.89"/>
    <edge id="gneE329" from="gneJ320" to="gneJ321" priority="1" numLanes="1" speed="13.89"/>
    <edge id="gneE33" from="gneJ38" to="gneJ39" priority="1" numLanes="1" speed="13.89"/>
    <edge id="gneE330" from="gneJ321" to="gneJ308" priority="1" numLanes="1" speed="13.89"/>
    <edge id="gneE331" from="gneJ305" to="gneJ245" priority="1" numLanes="1" speed="13.89"/>
    <edge id="gneE332" from="gneJ307" to="gneJ244" priority="1" numLanes="1" speed="13.89"/>
    <edge id="gneE333" from="gneJ307" to="gneJ248" priority="1" numLanes="1" speed="13.89"/>
    <edge id="gneE334" from="gneJ309" to="gneJ245" priority="1" numLanes="1" speed="13.89"/>
    <edge id="gneE335" from="gneJ317" to="gneJ306" priority="1" numLanes="1" speed="13.89"/>
    <edge id="gneE336" from="gneJ319" to="gneJ304" priority="1" numLanes="1" speed="13.89"/>
    <edge id="gneE337" from="gneJ319" to="gneJ308" priority="1" numLanes="1" speed="13.89"/>
    <edge id="gneE338" from="gneJ321" to="gneJ306" priority="1" numLanes="1" speed="13.89"/>
    <edge id="gneE339" from="gneJ313" to="gneJ322" priority="1" numLanes="1" speed="13.89"/>
    <edge id="gneE34" from="gneJ39" to="gneJ40" priority="1" numLanes="1" speed="13.89"/>
    <edge id="gneE340" from="gneJ314" to="gneJ323" priority="1" numLanes="1" speed="13.89"/>
    <edge id="gneE341" from="gneJ315" to="gneJ324" priority="1" numLanes="1" speed="13.89"/>
    <edge id="gneE342" from="gneJ325" to="gneJ316" priority="1" numLanes="1" speed="13.89"/>
    <edge id="gneE343" from="gneJ326" to="gneJ318" priority="1" numLanes="1" speed="13.89"/>
    <edge id="gneE344" from="gneJ327" to="gneJ320" priority="1" numLanes="1" speed="13.89"/>
    <edge id="gneE345" from="gneJ322" to="south-out3" priority="1" numLanes="1" speed="13.89"/>
    <edge id="gneE346" from="gneJ323" to="south-out2" priority="1" numLanes="1" speed="13.89"/>
    <edge id="gneE347" from="gneJ324" to="south-out1" priority="1" numLanes="1" speed="13.89"/>
    <edge id="gneE348" from="south1" to="gneJ325" priority="1" numLanes="1" speed="13.89"/>
    <edge id="gneE349" from="south2" to="gneJ326" priority="1" numLanes="1" speed="13.89"/>
    <edge id="gneE35" from="gneJ40" to="gneJ41" priority="1" numLanes="1" speed="13.89"/>
    <edge id="gneE350" from="south3" to="gneJ327" priority="1" numLanes="1" speed="13.89"/>
    <edge id="gneE351" from="gneJ327" to="gneJ318" priority="1" numLanes="1" speed="13.89"/>
    <edge id="gneE352" from="gneJ326" to="gneJ320" priority="1" numLanes="1" speed="13.89"/>
    <edge id="gneE353" from="gneJ326" to="gneJ316" priority="1" numLanes="1" speed="13.89"/>
    <edge id="gneE354" from="gneJ325" to="gneJ318" priority="1" numLanes="1" speed="13.89"/>
    <edge id="gneE355" from="gneJ313" to="gneJ323" priority="1" numLanes="1" speed="13.89"/>
    <edge id="gneE356" from="gneJ314" to="gneJ322" priority="1" numLanes="1" speed="13.89"/>
    <edge id="gneE357" from="gneJ314" to="gneJ324" priority="1" numLanes="1" speed="13.89"/>
    <edge id="gneE358" from="gneJ315" to="gneJ323" priority="1" numLanes="1" speed="13.89"/>
    <edge id="gneE359" from="gneJ303" to="gneJ311" priority="1" numLanes="1" speed="13.89"/>
    <edge id="gneE36" from="gneJ41" to="gneJ42" priority="1" numLanes="1" speed="13.89"/>
    <edge id="gneE360" from="gneJ301" to="gneJ312" priority="1" numLanes="1" speed="13.89"/>
    <edge id="gneE361" from="gneJ299" to="gneJ311" priority="1" numLanes="1" speed="13.89"/>
    <edge id="gneE362" from="gneJ301" to="gneJ310" priority="1" numLanes="1" speed="13.89"/>
    <edge id="gneE363" from="gneJ249" to="gneJ300" priority="1" numLanes="1" speed="13.89"/>
    <edge id="gneE364" from="gneJ250" to="gneJ302" priority="1" numLanes="1" speed="13.89"/>
    <edge id="gneE365" from="gneJ250" to="gneJ298" priority="1" numLanes="1" speed="13.89"/>
    <edge id="gneE366" from="gneJ251" to="gneJ300" priority="1" numLanes="1" speed="13.89"/>
    <edge id="gneE367" from="gneJ255" to="gneJ334" priority="1" numLanes="1" speed="13.89"/>
    <edge id="gneE368" from="gneJ334" to="gneJ335" priority="1" numLanes="1" speed="13.89"/>
    <edge id="gneE369" from="gneJ335" to="gneJ336" priority="1" numLanes="1" speed="13.89"/>
    <edge id="gneE37" from="gneJ42" to="gneJ43" priority="1" numLanes="1" speed="13.89"/>
    <edge id="gneE370" from="gneJ336" to="gneJ337" priority="1" numLanes="1" speed="13.89"/>
    <edge id="gneE371" from="gneJ254" to="gneJ338" priority="1" numLanes="1" speed="13.89"/>
    <edge id="gneE372" from="gneJ338" to="gneJ339" priority="1" numLanes="1" speed="13.89"/>
    <edge id="gneE373" from="gneJ339" to="gneJ340" priority="1" numLanes="1" speed="13.89"/>
    <edge id="gneE374" from="gneJ340" to="gneJ341" priority="1" numLanes="1" speed="13.89"/>
    <edge id="gneE375" from="gneJ252" to="gneJ342" priority="1" numLanes="1" speed="13.89"/>
    <edge id="gneE376" from="gneJ342" to="gneJ343" priority="1" numLanes="1" speed="13.89"/>
    <edge id="gneE377" from="gneJ343" to="gneJ344" priority="1" numLanes="1" speed="13.89"/>
    <edge id="gneE378" from="gneJ344" to="gneJ345" priority="1" numLanes="1" speed="13.89"/>
    <edge id="gneE379" from="gneJ346" to="gneJ347" priority="1" numLanes="1" speed="13.89"/>
    <edge id="gneE38" from="gneJ43" to="gneJ44" priority="1" numLanes="1" speed="13.89"/>
    <edge id="gneE380" from="gneJ347" to="gneJ348" priority="1" numLanes="1" speed="13.89"/>
    <edge id="gneE381" from="gneJ348" to="gneJ349" priority="1" numLanes="1" speed="13.89"/>
    <edge id="gneE382" from="gneJ349" to="gneJ256" priority="1" numLanes="1" speed="13.89"/>
    <edge id="gneE383" from="gneJ350" to="gneJ351" priority="1" numLanes="1" speed="13.89"/>
    <edge id="gneE384" from="gneJ351" to="gneJ352" priority="1" numLanes="1" speed="13.89"/>
    <edge id="gneE385" from="gneJ352" to="gneJ353" priority="1" numLanes="1" speed="13.89"/>
    <edge id="gneE386" from="gneJ353" to="gneJ257" priority="1" numLanes="1" speed="13.89"/>
    <edge id="gneE387" from="gneJ354" to="gneJ355" priority="1" numLanes="1" speed="13.89"/>
    <edge id="gneE388" from="gneJ355" to="gneJ356" priority="1" numLanes="1" speed="13.89"/>
    <edge id="gneE389" from="gneJ356" to="gneJ357" priority="1" numLanes="1" speed="13.89"/>
    <edge id="gneE39" from="gneJ44" to="gneJ45" priority="1" numLanes="1" speed="13.89"/>