<?xml version="1.0" encoding="UTF-8"?>

<!-- generated on 6/25/2018 11:44:41 PM by Netedit Version 0.32.0
<?xml version="1.0" encoding="UTF-8"?>

<configuration xmlns:xsi="http://www.w3.org/2001/XMLSchema-instance" xsi:noNamespaceSchemaLocation="http://sumo.dlr.de/xsd/netconvertConfiguration.xsd">

    <input>
        <sumo-net-file value="C:\Users\abeld\Documents\School\Year%202\Project%202-2\Project_2.2\desktop\assets\Intersection\Turbine\Turbine.net.xml"/>
    </input>

    <output>
        <output-file value="C:\Users\abeld\Documents\School\Year%202\Project%202-2\Project_2.2\desktop\assets\Intersection\Turbine\Turbine.net.xml"/>
        <plain-output-prefix value="C:\Users\abeld\Documents\School\Year%202\Project%202-2\Project_2.2\desktop\assets\Intersection\Turbine\Turbine"/>
    </output>

    <processing>
        <no-turnarounds value="true"/>
        <offset.disable-normalization value="true"/>
        <lefthand value="false"/>
        <junctions.corner-detail value="0"/>
        <rectangular-lane-cut value="false"/>
        <walkingareas value="false"/>
    </processing>

</configuration>
-->

<nodes version="0.27" xmlns:xsi="http://www.w3.org/2001/XMLSchema-instance" xsi:noNamespaceSchemaLocation="http://sumo.dlr.de/xsd/nodes_file.xsd">
    <location netOffset="0.00,0.00" convBoundary="-1810.00,-1820.00,1820.00,1800.00" origBoundary="-10000000000.00,-10000000000.00,10000000000.00,10000000000.00" projParameter="!"/>

    <node id="east-out1" x="1820.00" y="-30.00" type="dead_end"/>
    <node id="east-out2" x="1820.00" y="-40.00" type="dead_end"/>
    <node id="east-out3" x="1820.00" y="-50.00" type="dead_end"/>
    <node id="east1" x="1820.00" y="20.00" type="dead_end"/>
    <node id="east2" x="1820.00" y="30.00" type="dead_end"/>
    <node id="east3" x="1820.00" y="40.00" type="dead_end"/>
    <node id="gneJ100" x="640.00" y="-50.00" type="priority"/>
    <node id="gneJ101" x="660.00" y="-50.00" type="priority"/>
    <node id="gneJ102" x="700.00" y="-50.00" type="priority"/>
    <node id="gneJ103" x="50.00" y="-700.00" type="priority"/>
    <node id="gneJ104" x="50.00" y="-660.00" type="priority"/>
    <node id="gneJ105" x="50.00" y="-630.00" type="priority"/>
    <node id="gneJ106" x="50.00" y="-600.00" type="priority"/>
    <node id="gneJ107" x="50.00" y="-580.00" type="priority"/>
    <node id="gneJ108" x="50.00" y="-550.00" type="priority"/>
    <node id="gneJ109" x="50.00" y="-410.00" type="priority"/>
    <node id="gneJ11" x="-520.00" y="-90.00" type="priority"/>
    <node id="gneJ110" x="50.00" y="-380.00" type="priority"/>
    <node id="gneJ111" x="50.00" y="-350.00" type="priority"/>
    <node id="gneJ112" x="50.00" y="-330.00" type="priority"/>
    <node id="gneJ113" x="50.00" y="-310.00" type="priority"/>
    <node id="gneJ114" x="50.00" y="-280.00" type="priority"/>
    <node id="gneJ115" x="50.00" y="-240.00" type="priority"/>
    <node id="gneJ117" x="50.00" y="-70.00" type="priority"/>
    <node id="gneJ118" x="50.00" y="60.00" type="priority"/>
    <node id="gneJ119" x="50.00" y="190.00" type="priority"/>
    <node id="gneJ12" x="-450.00" y="-120.00" type="priority"/>
    <node id="gneJ120" x="50.00" y="310.00" type="priority"/>
    <node id="gneJ121" x="50.00" y="380.00" type="priority"/>
    <node id="gneJ122" x="50.00" y="580.00" type="priority"/>
    <node id="gneJ123" x="80.00" y="-530.00" type="priority"/>
    <node id="gneJ124" x="110.00" y="-460.00" type="priority"/>
    <node id="gneJ125" x="130.00" y="-420.00" type="priority"/>
    <node id="gneJ126" x="160.00" y="-370.00" type="priority"/>
    <node id="gneJ127" x="190.00" y="-330.00" type="priority"/>
    <node id="gneJ128" x="220.00" y="-290.00" type="priority"/>
    <node id="gneJ129" x="260.00" y="-250.00" type="priority"/>
    <node id="gneJ13" x="-410.00" y="-140.00" type="priority"/>
    <node id="gneJ130" x="350.00" y="-180.00" type="priority"/>
    <node id="gneJ131" x="410.00" y="-140.00" type="priority"/>
    <node id="gneJ132" x="450.00" y="-120.00" type="priority"/>
    <node id="gneJ133" x="490.00" y="-100.00" type="priority"/>
    <node id="gneJ134" x="540.00" y="-80.00" type="priority"/>
    <node id="gneJ135" x="580.00" y="-70.00" type="priority"/>
    <node id="gneJ136" x="-50.00" y="690.00" type="priority"/>
    <node id="gneJ137" x="-50.00" y="640.00" type="priority"/>
    <node id="gneJ14" x="-360.00" y="-170.00" type="priority"/>
    <node id="gneJ140" x="-50.00" y="620.00" type="priority"/>
    <node id="gneJ141" x="-50.00" y="600.00" type="priority"/>
    <node id="gneJ142" x="-50.00" y="590.00" type="priority"/>
    <node id="gneJ143" x="-50.00" y="570.00" type="priority"/>
    <node id="gneJ144" x="-50.00" y="510.00" type="priority"/>
    <node id="gneJ145" x="-50.00" y="380.00" type="priority"/>
    <node id="gneJ146" x="-50.00" y="320.00" type="priority"/>
    <node id="gneJ147" x="-50.00" y="310.00" type="priority"/>
    <node id="gneJ148" x="-50.00" y="200.00" type="priority"/>
    <node id="gneJ149" x="-50.00" y="-70.00" type="priority"/>
    <node id="gneJ15" x="-320.00" y="-200.00" type="priority"/>
    <node id="gneJ150" x="-50.00" y="-250.00" type="priority"/>
    <node id="gneJ151" x="-50.00" y="-430.00" type="priority"/>
    <node id="gneJ152" x="-50.00" y="-510.00" type="priority"/>
    <node id="gneJ153" x="-50.00" y="-600.00" type="priority"/>
    <node id="gneJ154" x="200.00" y="40.00" type="priority"/>
    <node id="gneJ155" x="-560.00" y="40.00" type="priority"/>
    <node id="gneJ156" x="-590.00" y="40.00" type="priority"/>
    <node id="gneJ157" x="-600.00" y="40.00" type="priority"/>
    <node id="gneJ158" x="-610.00" y="40.00" type="priority"/>
    <node id="gneJ159" x="-630.00" y="40.00" type="priority"/>
    <node id="gneJ16" x="-270.00" y="-240.00" type="priority"/>
    <node id="gneJ160" x="-650.00" y="40.00" type="priority"/>
    <node id="gneJ161" x="-700.00" y="40.00" type="priority"/>
    <node id="gneJ162" x="-70.00" y="540.00" type="priority"/>
    <node id="gneJ163" x="-90.00" y="490.00" type="priority"/>
    <node id="gneJ164" x="-110.00" y="450.00" type="priority"/>
    <node id="gneJ165" x="-140.00" y="400.00" type="priority"/>
    <node id="gneJ166" x="-170.00" y="350.00" type="priority"/>
    <node id="gneJ167" x="-200.00" y="310.00" type="priority"/>
    <node id="gneJ168" x="-260.00" y="250.00" type="priority"/>
    <node id="gneJ169" x="-340.00" y="180.00" type="priority"/>
    <node id="gneJ17" x="-220.00" y="-290.00" type="priority"/>
    <node id="gneJ170" x="-400.00" y="140.00" type="priority"/>
    <node id="gneJ171" x="-460.00" y="110.00" type="priority"/>
    <node id="gneJ172" x="-520.00" y="80.00" type="priority"/>
    <node id="gneJ173" x="-590.00" y="60.00" type="priority"/>
    <node id="gneJ174" x="-80.00" y="230.00" type="priority"/>
    <node id="gneJ175" x="-100.00" y="190.00" type="priority"/>
    <node id="gneJ176" x="-120.00" y="160.00" type="priority"/>
    <node id="gneJ177" x="-140.00" y="140.00" type="priority"/>
    <node id="gneJ178" x="-160.00" y="120.00" type="priority"/>
    <node id="gneJ179" x="-190.00" y="90.00" type="priority"/>
    <node id="gneJ18" x="-180.00" y="-340.00" type="priority"/>
    <node id="gneJ180" x="-210.00" y="60.00" type="priority"/>
    <node id="gneJ181" x="-250.00" y="-10.00" type="priority"/>
    <node id="gneJ182" x="-260.00" y="-90.00" type="priority"/>
    <node id="gneJ183" x="-250.00" y="-150.00" type="priority"/>
    <node id="gneJ184" x="-240.00" y="-190.00" type="priority"/>
    <node id="gneJ185" x="-220.00" y="-220.00" type="priority"/>
    <node id="gneJ186" x="-180.00" y="-270.00" type="priority"/>
    <node id="gneJ187" x="-130.00" y="-310.00" type="priority"/>
    <node id="gneJ188" x="-30.00" y="-350.00" type="priority"/>
    <node id="gneJ189" x="30.00" y="-350.00" type="priority"/>
    <node id="gneJ19" x="-150.00" y="-380.00" type="priority"/>
    <node id="gneJ190" x="100.00" y="-340.00" type="priority"/>
    <node id="gneJ191" x="140.00" y="-330.00" type="priority"/>
    <node id="gneJ192" x="180.00" y="-310.00" type="priority"/>
    <node id="gneJ193" x="70.00" y="-280.00" type="priority"/>
    <node id="gneJ194" x="90.00" y="-220.00" type="priority"/>
    <node id="gneJ195" x="110.00" y="-180.00" type="priority"/>
    <node id="gneJ197" x="150.00" y="-140.00" type="priority"/>
    <node id="gneJ198" x="180.00" y="-110.00" type="priority"/>
    <node id="gneJ199" x="200.00" y="-80.00" type="priority"/>
    <node id="gneJ20" x="-130.00" y="-420.00" type="priority"/>
    <node id="gneJ200" x="240.00" y="-10.00" type="priority"/>
    <node id="gneJ201" x="260.00" y="50.00" type="priority"/>
    <node id="gneJ202" x="260.00" y="90.00" type="priority"/>
    <node id="gneJ203" x="250.00" y="150.00" type="priority"/>
    <node id="gneJ204" x="230.00" y="200.00" type="priority"/>
    <node id="gneJ205" x="210.00" y="240.00" type="priority"/>
    <node id="gneJ206" x="150.00" y="290.00" type="priority"/>
    <node id="gneJ207" x="100.00" y="320.00" type="priority"/>
    <node id="gneJ208" x="40.00" y="340.00" type="priority"/>
    <node id="gneJ209" x="-70.00" y="340.00" type="priority"/>
    <node id="gneJ21" x="-110.00" y="-460.00" type="priority"/>
    <node id="gneJ210" x="-140.00" y="320.00" type="priority"/>
    <node id="gneJ211" x="-180.00" y="300.00" type="priority"/>
    <node id="gneJ215" x="700.00" y="30.00" type="priority"/>
    <node id="gneJ216" x="-700.00" y="30.00" type="priority"/>
    <node id="gneJ218" x="-700.00" y="20.00" type="priority"/>
    <node id="gneJ219" x="-700.00" y="-40.00" type="priority"/>
    <node id="gneJ22" x="-80.00" y="-520.00" type="priority"/>
    <node id="gneJ220" x="700.00" y="-40.00" type="priority"/>
    <node id="gneJ221" x="-700.00" y="-30.00" type="priority"/>
    <node id="gneJ222" x="700.00" y="-30.00" type="priority"/>
    <node id="gneJ223" x="40.00" y="-700.00" type="priority"/>
    <node id="gneJ225" x="30.00" y="-700.00" type="priority"/>
    <node id="gneJ226" x="30.00" y="690.00" type="priority"/>
    <node id="gneJ227" x="-40.00" y="690.00" type="priority"/>
    <node id="gneJ228" x="-40.00" y="-700.00" type="priority"/>
    <node id="gneJ229" x="-30.00" y="690.00" type="priority"/>
    <node id="gneJ23" x="-60.00" y="-570.00" type="priority"/>
    <node id="gneJ230" x="-30.00" y="-700.00" type="priority"/>
    <node id="gneJ231" x="-1390.00" y="20.00" type="priority"/>
    <node id="gneJ232" x="-1390.00" y="30.00" type="priority"/>
    <node id="gneJ233" x="-1390.00" y="40.00" type="priority"/>
    <node id="gneJ234" x="-1390.00" y="-50.00" type="priority"/>
    <node id="gneJ235" x="-1390.00" y="-40.00" type="priority"/>
    <node id="gneJ236" x="-1390.00" y="-30.00" type="priority"/>
    <node id="gneJ237" x="1400.00" y="-30.00" type="priority"/>
    <node id="gneJ238" x="1400.00" y="-40.00" type="priority"/>
    <node id="gneJ239" x="1400.00" y="-50.00" type="priority"/>
    <node id="gneJ24" x="-50.00" y="-650.00" type="priority"/>
    <node id="gneJ240" x="1400.00" y="20.00" type="priority"/>
    <node id="gneJ241" x="700.00" y="20.00" type="priority"/>
    <node id="gneJ242" x="1400.00" y="30.00" type="priority"/>
    <node id="gneJ243" x="1400.00" y="40.00" type="priority"/>
    <node id="gneJ244" x="30.00" y="-1400.00" type="priority"/>
    <node id="gneJ245" x="40.00" y="-1400.00" type="priority"/>
    <node id="gneJ248" x="50.00" y="-1400.00" type="priority"/>
    <node id="gneJ249" x="-30.00" y="-1400.00" type="priority"/>
    <node id="gneJ25" x="-50.00" y="-700.00" type="priority"/>
    <node id="gneJ250" x="-40.00" y="-1400.00" type="priority"/>
    <node id="gneJ251" x="-50.00" y="-1400.00" type="priority"/>
    <node id="gneJ252" x="30.00" y="1380.00" type="priority"/>
    <node id="gneJ253" x="40.00" y="690.00" type="priority"/>
    <node id="gneJ254" x="40.00" y="1380.00" type="priority"/>
    <node id="gneJ255" x="50.00" y="1380.00" type="priority"/>
    <node id="gneJ256" x="-30.00" y="1380.00" type="priority"/>
    <node id="gneJ257" x="-40.00" y="1380.00" type="priority"/>
    <node id="gneJ258" x="-50.00" y="1380.00" type="priority"/>
    <node id="gneJ259" x="1470.00" y="-30.00" type="priority"/>
    <node id="gneJ26" x="700.00" y="40.00" type="priority"/>
    <node id="gneJ260" x="1550.00" y="-30.00" type="priority"/>
    <node id="gneJ261" x="1620.00" y="-30.00" type="priority"/>
    <node id="gneJ262" x="1700.00" y="-30.00" type="priority"/>
    <node id="gneJ263" x="1770.00" y="-30.00" type="priority"/>
    <node id="gneJ265" x="1470.00" y="-40.00" type="priority"/>
    <node id="gneJ266" x="1550.00" y="-40.00" type="priority"/>
    <node id="gneJ267" x="1620.00" y="-40.00" type="priority"/>
    <node id="gneJ268" x="1700.00" y="-40.00" type="priority"/>
    <node id="gneJ269" x="1770.00" y="-40.00" type="priority"/>
    <node id="gneJ27" x="640.00" y="40.00" type="priority"/>
    <node id="gneJ272" x="1770.00" y="20.00" type="priority"/>
    <node id="gneJ273" x="1700.00" y="20.00" type="priority"/>
    <node id="gneJ274" x="1620.00" y="20.00" type="priority"/>
    <node id="gneJ275" x="1550.00" y="20.00" type="priority"/>
    <node id="gneJ276" x="1470.00" y="20.00" type="priority"/>
    <node id="gneJ278" x="1770.00" y="30.00" type="priority"/>
    <node id="gneJ279" x="1700.00" y="30.00" type="priority"/>
    <node id="gneJ28" x="420.00" y="40.00" type="priority"/>
    <node id="gneJ282" x="1620.00" y="30.00" type="priority"/>
    <node id="gneJ283" x="1550.00" y="30.00" type="priority"/>
    <node id="gneJ284" x="1470.00" y="30.00" type="priority"/>
    <node id="gneJ286" x="1770.00" y="40.00" type="priority"/>
    <node id="gneJ287" x="1700.00" y="40.00" type="priority"/>
    <node id="gneJ288" x="1620.00" y="40.00" type="priority"/>
    <node id="gneJ289" x="1550.00" y="40.00" type="priority"/>
    <node id="gneJ29" x="390.00" y="40.00" type="priority"/>
    <node id="gneJ290" x="1470.00" y="40.00" type="priority"/>
    <node id="gneJ291" x="1470.00" y="-50.00" type="priority"/>
    <node id="gneJ292" x="1550.00" y="-50.00" type="priority"/>
    <node id="gneJ293" x="1620.00" y="-50.00" type="priority"/>
    <node id="gneJ294" x="1700.00" y="-50.00" type="priority"/>
    <node id="gneJ295" x="1770.00" y="-50.00" type="priority"/>
    <node id="gneJ298" x="-50.00" y="-1470.00" type="priority"/>
    <node id="gneJ299" x="-50.00" y="-1550.00" type="priority"/>
    <node id="gneJ30" x="350.00" y="40.00" type="priority"/>
    <node id="gneJ300" x="-40.00" y="-1470.00" type="priority"/>
    <node id="gneJ301" x="-40.00" y="-1550.00" type="priority"/>
    <node id="gneJ302" x="-30.00" y="-1470.00" type="priority"/>
    <node id="gneJ303" x="-30.00" y="-1550.00" type="priority"/>
    <node id="gneJ304" x="30.00" y="-1550.00" type="priority"/>
    <node id="gneJ305" x="30.00" y="-1470.00" type="priority"/>
    <node id="gneJ306" x="40.00" y="-1550.00" type="priority"/>
    <node id="gneJ307" x="40.00" y="-1470.00" type="priority"/>
    <node id="gneJ308" x="50.00" y="-1550.00" type="priority"/>
    <node id="gneJ309" x="50.00" y="-1470.00" type="priority"/>
    <node id="gneJ31" x="290.00" y="60.00" type="priority"/>
    <node id="gneJ310" x="-50.00" y="-1620.00" type="priority"/>
    <node id="gneJ311" x="-40.00" y="-1620.00" type="priority"/>
    <node id="gneJ312" x="-30.00" y="-1620.00" type="priority"/>
    <node id="gneJ313" x="-50.00" y="-1700.00" type="priority"/>
    <node id="gneJ314" x="-40.00" y="-1700.00" type="priority"/>
    <node id="gneJ315" x="-30.00" y="-1700.00" type="priority"/>
    <node id="gneJ316" x="30.00" y="-1700.00" type="priority"/>
    <node id="gneJ317" x="30.00" y="-1620.00" type="priority"/>
    <node id="gneJ318" x="40.00" y="-1700.00" type="priority"/>
    <node id="gneJ319" x="40.00" y="-1620.00" type="priority"/>
    <node id="gneJ32" x="210.00" y="90.00" type="priority"/>
    <node id="gneJ320" x="50.00" y="-1700.00" type="priority"/>
    <node id="gneJ321" x="50.00" y="-1620.00" type="priority"/>
    <node id="gneJ322" x="-50.00" y="-1770.00" type="priority"/>
    <node id="gneJ323" x="-40.00" y="-1770.00" type="priority"/>
    <node id="gneJ324" x="-30.00" y="-1770.00" type="priority"/>
    <node id="gneJ325" x="30.00" y="-1770.00" type="priority"/>
    <node id="gneJ326" x="40.00" y="-1770.00" type="priority"/>
    <node id="gneJ327" x="50.00" y="-1770.00" type="priority"/>
    <node id="gneJ33" x="160.00" y="120.00" type="priority"/>
    <node id="gneJ334" x="50.00" y="1450.00" type="priority"/>
    <node id="gneJ335" x="50.00" y="1530.00" type="priority"/>
    <node id="gneJ336" x="50.00" y="1600.00" type="priority"/>
    <node id="gneJ337" x="50.00" y="1680.00" type="priority"/>
    <node id="gneJ338" x="40.00" y="1450.00" type="priority"/>
    <node id="gneJ339" x="40.00" y="1530.00" type="priority"/>
    <node id="gneJ34" x="130.00" y="150.00" type="priority"/>
    <node id="gneJ340" x="40.00" y="1600.00" type="priority"/>
    <node id="gneJ341" x="40.00" y="1680.00" type="priority"/>
    <node id="gneJ342" x="30.00" y="1450.00" type="priority"/>
    <node id="gneJ343" x="30.00" y="1530.00" type="priority"/>
    <node id="gneJ344" x="30.00" y="1600.00" type="priority"/>
    <node id="gneJ345" x="30.00" y="1680.00" type="priority"/>
    <node id="gneJ346" x="-30.00" y="1680.00" type="priority"/>
    <node id="gneJ347" x="-30.00" y="1600.00" type="priority"/>
    <node id="gneJ348" x="-30.00" y="1530.00" type="priority"/>
    <node id="gneJ349" x="-30.00" y="1450.00" type="priority"/>
    <node id="gneJ35" x="110.00" y="170.00" type="priority"/>
    <node id="gneJ350" x="-40.00" y="1680.00" type="priority"/>
    <node id="gneJ351" x="-40.00" y="1600.00" type="priority"/>
    <node id="gneJ352" x="-40.00" y="1530.00" type="priority"/>
    <node id="gneJ353" x="-40.00" y="1450.00" type="priority"/>
    <node id="gneJ354" x="-50.00" y="1680.00" type="priority"/>
    <node id="gneJ355" x="-50.00" y="1600.00" type="priority"/>
    <node id="gneJ356" x="-50.00" y="1530.00" type="priority"/>
    <node id="gneJ357" x="-50.00" y="1450.00" type="priority"/>
    <node id="gneJ358" x="50.00" y="1750.00" type="priority"/>
    <node id="gneJ36" x="80.00" y="190.00" type="priority"/>
    <node id="gneJ362" x="30.00" y="1750.00" type="priority"/>
    <node id="gneJ365" x="-30.00" y="1750.00" type="priority"/>
    <node id="gneJ367" x="-40.00" y="1750.00" type="priority"/>
    <node id="gneJ369" x="-50.00" y="1750.00" type="priority"/>
    <node id="gneJ37" x="40.00" y="220.00" type="priority"/>
    <node id="gneJ370" x="40.00" y="1750.00" type="priority"/>
    <node id="gneJ373" x="-1460.00" y="40.00" type="priority"/>
    <node id="gneJ374" x="-1460.00" y="30.00" type="priority"/>
    <node id="gneJ375" x="-1460.00" y="20.00" type="priority"/>
    <node id="gneJ376" x="-1460.00" y="-30.00" type="priority"/>
    <node id="gneJ377" x="-1460.00" y="-40.00" type="priority"/>
    <node id="gneJ378" x="-1460.00" y="-50.00" type="priority"/>
    <node id="gneJ379" x="-1540.00" y="40.00" type="priority"/>
    <node id="gneJ38" x="0.00" y="240.00" type="priority"/>
    <node id="gneJ380" x="-1540.00" y="30.00" type="priority"/>
    <node id="gneJ381" x="-1540.00" y="20.00" type="priority"/>
    <node id="gneJ382" x="-1540.00" y="-30.00" type="priority"/>
    <node id="gneJ383" x="-1540.00" y="-40.00" type="priority"/>
    <node id="gneJ384" x="-1540.00" y="-50.00" type="priority"/>
    <node id="gneJ385" x="-1610.00" y="40.00" type="priority"/>
    <node id="gneJ386" x="-1610.00" y="30.00" type="priority"/>
    <node id="gneJ387" x="-1610.00" y="20.00" type="priority"/>
    <node id="gneJ39" x="-40.00" y="250.00" type="priority"/>
    <node id="gneJ390" x="-1690.00" y="40.00" type="priority"/>
    <node id="gneJ391" x="-1690.00" y="30.00" type="priority"/>
    <node id="gneJ392" x="-1690.00" y="20.00" type="priority"/>
    <node id="gneJ393" x="-1760.00" y="30.00" type="priority"/>
    <node id="gneJ394" x="-1760.00" y="40.00" type="priority"/>
    <node id="gneJ395" x="-1760.00" y="20.00" type="priority"/>
    <node id="gneJ396" x="-1760.00" y="-30.00" type="priority"/>
    <node id="gneJ397" x="-1690.00" y="-30.00" type="priority"/>
    <node id="gneJ398" x="-1610.00" y="-30.00" type="priority"/>
    <node id="gneJ399" x="-1760.00" y="-40.00" type="priority"/>
    <node id="gneJ40" x="-130.00" y="250.00" type="priority"/>
    <node id="gneJ400" x="-1690.00" y="-40.00" type="priority"/>
    <node id="gneJ401" x="-1610.00" y="-40.00" type="priority"/>
    <node id="gneJ402" x="-1760.00" y="-50.00" type="priority"/>
    <node id="gneJ403" x="-1690.00" y="-50.00" type="priority"/>
    <node id="gneJ404" x="-1610.00" y="-50.00" type="priority"/>
    <node id="gneJ41" x="-170.00" y="240.00" type="priority"/>
    <node id="gneJ42" x="-200.00" y="230.00" type="priority"/>
    <node id="gneJ43" x="-230.00" y="210.00" type="priority"/>
    <node id="gneJ44" x="-260.00" y="190.00" type="priority"/>
    <node id="gneJ45" x="-290.00" y="150.00" type="priority"/>
    <node id="gneJ46" x="-310.00" y="120.00" type="priority"/>
    <node id="gneJ47" x="-320.00" y="100.00" type="priority"/>
    <node id="gneJ48" x="-340.00" y="60.00" type="priority"/>
    <node id="gneJ49" x="-350.00" y="-10.00" type="priority"/>
    <node id="gneJ50" x="-340.00" y="-80.00" type="priority"/>
    <node id="gneJ51" x="-330.00" y="-120.00" type="priority"/>
    <node id="gneJ52" x="-320.00" y="-150.00" type="priority"/>
    <node id="gneJ53" x="-300.00" y="-190.00" type="priority"/>
    <node id="gneJ54" x="590.00" y="60.00" type="priority"/>
    <node id="gneJ55" x="520.00" y="80.00" type="priority"/>
    <node id="gneJ56" x="470.00" y="100.00" type="priority"/>
    <node id="gneJ57" x="410.00" y="130.00" type="priority"/>
    <node id="gneJ58" x="380.00" y="150.00" type="priority"/>
    <node id="gneJ59" x="350.00" y="170.00" type="priority"/>
    <node id="gneJ6" x="-700.00" y="-50.00" type="priority"/>
    <node id="gneJ60" x="320.00" y="190.00" type="priority"/>
    <node id="gneJ61" x="280.00" y="220.00" type="priority"/>
    <node id="gneJ62" x="250.00" y="250.00" type="priority"/>
    <node id="gneJ63" x="210.00" y="300.00" type="priority"/>
    <node id="gneJ64" x="180.00" y="340.00" type="priority"/>
    <node id="gneJ65" x="140.00" y="400.00" type="priority"/>
    <node id="gneJ66" x="110.00" y="460.00" type="priority"/>
    <node id="gneJ67" x="90.00" y="510.00" type="priority"/>
    <node id="gneJ68" x="70.00" y="560.00" type="priority"/>
    <node id="gneJ69" x="60.00" y="600.00" type="priority"/>
    <node id="gneJ7" x="-630.00" y="-50.00" type="priority"/>
    <node id="gneJ70" x="50.00" y="650.00" type="priority"/>
    <node id="gneJ71" x="50.00" y="690.00" type="priority"/>
    <node id="gneJ72" x="-530.00" y="-50.00" type="priority"/>
    <node id="gneJ73" x="-430.00" y="-50.00" type="priority"/>
    <node id="gneJ74" x="-360.00" y="-50.00" type="priority"/>
    <node id="gneJ75" x="-230.00" y="-50.00" type="priority"/>
    <node id="gneJ76" x="-270.00" y="-70.00" type="priority"/>
    <node id="gneJ77" x="-220.00" y="-90.00" type="priority"/>
    <node id="gneJ78" x="-170.00" y="-120.00" type="priority"/>
    <node id="gneJ79" x="-130.00" y="-150.00" type="priority"/>
    <node id="gneJ8" x="-570.00" y="-70.00" type="priority"/>
    <node id="gneJ80" x="-100.00" y="-180.00" type="priority"/>
    <node id="gneJ81" x="-50.00" y="-220.00" type="priority"/>
    <node id="gneJ82" x="-10.00" y="-240.00" type="priority"/>
    <node id="gneJ83" x="40.00" y="-260.00" type="priority"/>
    <node id="gneJ84" x="130.00" y="-260.00" type="priority"/>
    <node id="gneJ85" x="190.00" y="-240.00" type="priority"/>
    <node id="gneJ86" x="240.00" y="-210.00" type="priority"/>
    <node id="gneJ87" x="280.00" y="-170.00" type="priority"/>
    <node id="gneJ88" x="320.00" y="-110.00" type="priority"/>
    <node id="gneJ89" x="340.00" y="-60.00" type="priority"/>
    <node id="gneJ90" x="350.00" y="-10.00" type="priority"/>
    <node id="gneJ91" x="340.00" y="80.00" type="priority"/>
    <node id="gneJ92" x="330.00" y="120.00" type="priority"/>
    <node id="gneJ93" x="320.00" y="150.00" type="priority"/>
    <node id="gneJ94" x="310.00" y="180.00" type="priority"/>
    <node id="gneJ97" x="550.00" y="-50.00" type="priority"/>
    <node id="gneJ98" x="600.00" y="-50.00" type="priority"/>
    <node id="gneJ99" x="620.00" y="-50.00" type="priority"/>
    <node id="north-out1" x="30.00" y="1800.00" type="dead_end"/>
    <node id="north-out2" x="40.00" y="1800.00" type="dead_end"/>
    <node id="north-out3" x="50.00" y="1800.00" type="dead_end"/>
    <node id="north1" x="-30.00" y="1800.00" type="dead_end"/>
    <node id="north2" x="-40.00" y="1800.00" type="dead_end"/>
    <node id="north3" x="-50.00" y="1800.00" type="dead_end"/>
    <node id="south-out1" x="-30.00" y="-1820.00" type="dead_end"/>
    <node id="south-out2" x="-40.00" y="-1820.00" type="dead_end"/>
    <node id="south-out3" x="-50.00" y="-1820.00" type="dead_end"/>
    <node id="south1" x="30.00" y="-1820.00" type="dead_end"/>
    <node id="south2" x="40.00" y="-1820.00" type="dead_end"/>
    <node id="south3" x="50.00" y="-1820.00" type="dead_end"/>
    <node id="west-out1" x="-1810.00" y="20.00" type="dead_end"/>
    <node id="west-out2" x="-1810.00" y="30.00" type="dead_end"/>
    <node id="west-out3" x="-1810.00" y="40.00" type="dead_end"/>
    <node id="west1" x="-1810.00" y="-30.00" type="dead_end"/>
    <node id="west2" x="-1810.00" y="-40.00" type="dead_end"/>
    <node id="west3" x="-1810.00" y="-50.00" type="dead_end"/>
</nodes>
